* NGSPICE file created from mux4onehot_b_parax.ext - technology: sky130A

.subckt mux4onehot_b_parax select1 select2 A1 A3 Z1 A2 A4 select0 Z4 Z3 VPWR Z2 VGND
+ nselect2
X0 A2.t1 x2.GP2.t4 Z2.t0 VPWR.t19 sky130_fd_pr__pfet_01v8_lvt ad=0 pd=0 as=0 ps=0 w=10 l=0.35
**devattr s=116000,4116 d=116000,4116
X1 VPWR.t5 a_5275_n4059# a_5275_n4235# VPWR.t4 sky130_fd_pr__pfet_01v8_hvt ad=0 pd=0 as=0.0609 ps=0.71 w=0.42 l=0.15
**devattr s=2436,142 d=2856,152
X2 A1.t2 x2.GP1.t4 Z1.t2 VPWR.t53 sky130_fd_pr__pfet_01v8_lvt ad=0 pd=0 as=0 ps=0 w=10 l=0.35
**devattr s=116000,4116 d=116000,4116
X3 VGND.t56 select0.t0 a_5275_n3507# VGND.t55 sky130_fd_pr__nfet_01v8 ad=0 pd=0 as=0.1092 ps=1.36 w=0.42 l=0.15
**devattr s=4368,272 d=4368,272
X4 a_5275_n3683# a_5275_n3507# a_5301_n3555# VGND.t59 sky130_fd_pr__nfet_01v8 ad=0.1092 pd=1.36 as=0.0504 ps=0.66 w=0.42 l=0.15
**devattr s=2016,132 d=4368,272
X5 A4.t3 x2.GP4.t4 Z4.t2 VPWR.t3 sky130_fd_pr__pfet_01v8_lvt ad=0 pd=0 as=0 ps=0 w=10 l=0.35
**devattr s=116000,4116 d=116000,4116
X6 VGND.t17 select1.t0 x1.nSEL1 VGND.t16 sky130_fd_pr__nfet_01v8 ad=0 pd=0 as=0.08775 ps=0.92 w=0.65 l=0.15
**devattr s=3510,184 d=6760,364
X7 VGND.t32 x2.GN2 x2.GP2.t3 VGND.t31 sky130_fd_pr__nfet_01v8 ad=0 pd=0 as=0 ps=0 w=0.65 l=0.15
**devattr s=3510,184 d=6760,364
X8 x1.nSEL0 select0.t1 VGND.t54 VGND.t53 sky130_fd_pr__nfet_01v8 ad=0.08775 pd=0.92 as=0 ps=0 w=0.65 l=0.15
**devattr s=6760,364 d=3510,184
X9 VGND.t27 a_5275_n4651# x2.GN1.t1 VGND.t26 sky130_fd_pr__nfet_01v8 ad=0 pd=0 as=0 ps=0 w=0.65 l=0.15
**devattr s=7280,372 d=4472,208
X10 VPWR.t52 select0.t2 x1.nSEL0 VPWR.t51 sky130_fd_pr__pfet_01v8_hvt ad=0 pd=0 as=0.135 ps=1.27 w=1 l=0.15
**devattr s=5400,254 d=10400,504
X11 x2.GP1.t0 x2.GN1.t2 VGND.t37 VGND.t36 sky130_fd_pr__nfet_01v8 ad=0 pd=0 as=0 ps=0 w=0.65 l=0.15
**devattr s=6760,364 d=3510,184
X12 VGND.t43 x2.GN1.t3 x2.GP1.t1 VGND.t42 sky130_fd_pr__nfet_01v8 ad=0 pd=0 as=0 ps=0 w=0.65 l=0.15
**devattr s=3510,184 d=6760,364
X13 x2.GP4.t0 x2.GN4.t2 VPWR.t9 VPWR.t8 sky130_fd_pr__pfet_01v8_hvt ad=0 pd=0 as=0 ps=0 w=1 l=0.15
**devattr s=10400,504 d=5400,254
X14 VPWR.t63 x2.GN4.t3 x2.GP4.t3 VPWR.t62 sky130_fd_pr__pfet_01v8_hvt ad=0 pd=0 as=0 ps=0 w=1 l=0.15
**devattr s=5400,254 d=10400,504
X15 a_5275_n4059# select1.t1 VPWR.t18 VPWR.t17 sky130_fd_pr__pfet_01v8_hvt ad=0.1092 pd=1.36 as=0 ps=0 w=0.42 l=0.15
**devattr s=2856,152 d=4368,272
X16 VGND.t11 VPWR.t71 VGND.t10 VGND.t9 sky130_fd_pr__nfet_01v8 ad=0 pd=0 as=0 ps=0 w=0.55 l=1.05
**devattr d=5720,324
X17 a_5301_n4107# select0.t3 VGND.t52 VGND.t51 sky130_fd_pr__nfet_01v8 ad=0.0504 pd=0.66 as=0 ps=0 w=0.42 l=0.15
**devattr s=4052,198 d=2016,132
X18 VGND.t61 a_5275_n4235# x2.GN2 VGND.t60 sky130_fd_pr__nfet_01v8 ad=0 pd=0 as=0.169 ps=1.82 w=0.65 l=0.15
**devattr s=6760,364 d=4052,198
X19 a_5275_n4651# x1.nSEL1 VPWR.t14 VPWR.t13 sky130_fd_pr__pfet_01v8_hvt ad=0.0567 pd=0.69 as=0 ps=0 w=0.42 l=0.15
**devattr s=6662,278 d=2268,138
X20 VGND.t8 VPWR.t72 VGND.t7 VGND.t6 sky130_fd_pr__nfet_01v8 ad=0 pd=0 as=0 ps=0 w=0.55 l=1.05
**devattr d=5720,324
X21 a_5275_n3507# select0.t4 VPWR.t16 VPWR.t15 sky130_fd_pr__pfet_01v8_hvt ad=0.1092 pd=1.36 as=0 ps=0 w=0.42 l=0.15
**devattr s=2856,152 d=4368,272
X22 a_5275_n4235# select0.t5 VPWR.t44 VPWR.t43 sky130_fd_pr__pfet_01v8_hvt ad=0.0609 pd=0.71 as=0 ps=0 w=0.42 l=0.15
**devattr s=9116,348 d=2436,142
X23 VPWR.t42 x1.nSEL0 a_5275_n4651# VPWR.t41 sky130_fd_pr__pfet_01v8_hvt ad=0 pd=0 as=0.0567 ps=0.69 w=0.42 l=0.15
**devattr s=2268,138 d=4704,280
X24 VPWR.t50 a_5275_n3507# a_5275_n3683# VPWR.t49 sky130_fd_pr__pfet_01v8_hvt ad=0 pd=0 as=0.0609 ps=0.71 w=0.42 l=0.15
**devattr s=2436,142 d=2856,152
X25 VPWR.t48 a_5275_n3683# x2.GN3 VPWR.t47 sky130_fd_pr__pfet_01v8_hvt ad=0 pd=0 as=0.26 ps=2.52 w=1 l=0.15
**devattr s=10400,504 d=9116,348
X26 VGND.t39 a_5275_n2995# x2.GN4.t1 VGND.t38 sky130_fd_pr__nfet_01v8 ad=0 pd=0 as=0 ps=0 w=0.65 l=0.15
**devattr s=7280,372 d=4472,208
X27 nselect2.t1 select2.t0 VPWR.t40 VPWR.t39 sky130_fd_pr__pfet_01v8_hvt ad=0 pd=0 as=0 ps=0 w=1 l=0.15
**devattr s=10400,504 d=5400,254
X28 A3.t3 x2.GP3 Z3.t2 VPWR.t70 sky130_fd_pr__pfet_01v8_lvt ad=0 pd=0 as=0 ps=0 w=10 l=0.35
**devattr s=116000,4116 d=116000,4116
X29 VGND.t50 select0.t6 x1.nSEL0 VGND.t49 sky130_fd_pr__nfet_01v8 ad=0 pd=0 as=0.08775 ps=0.92 w=0.65 l=0.15
**devattr s=3510,184 d=6760,364
X30 Z3.t0 x2.GN3 A3.t1 VGND.t25 sky130_fd_pr__nfet_01v8_lvt ad=0 pd=0 as=0 ps=0 w=8 l=0.35
**devattr s=92800,3316 d=92800,3316
X31 Z3.t1 x2.GN3 A3.t0 VGND.t25 sky130_fd_pr__nfet_01v8_lvt ad=0 pd=0 as=0 ps=0 w=8 l=0.35
**devattr s=92800,3316 d=92800,3316
X32 VPWR.t65 select2.t1 nselect2.t0 VPWR.t64 sky130_fd_pr__pfet_01v8_hvt ad=0 pd=0 as=0 ps=0 w=1 l=0.15
**devattr s=5400,254 d=10400,504
X33 x2.GP4.t1 x2.GN4.t4 VGND.t45 VGND.t44 sky130_fd_pr__nfet_01v8 ad=0 pd=0 as=0 ps=0 w=0.65 l=0.15
**devattr s=6760,364 d=3510,184
X34 x2.GP3 x2.GN3 VPWR.t30 VPWR.t29 sky130_fd_pr__pfet_01v8_hvt ad=0.135 pd=1.27 as=0 ps=0 w=1 l=0.15
**devattr s=10400,504 d=5400,254
X35 x1.nSEL1 select1.t2 VPWR.t67 VPWR.t66 sky130_fd_pr__pfet_01v8_hvt ad=0.135 pd=1.27 as=0 ps=0 w=1 l=0.15
**devattr s=10400,504 d=5400,254
X36 x2.GP2.t0 x2.GN2 VPWR.t36 VPWR.t35 sky130_fd_pr__pfet_01v8_hvt ad=0 pd=0 as=0 ps=0 w=1 l=0.15
**devattr s=10400,504 d=5400,254
X37 VPWR.t12 VGND.t68 VPWR.t11 VPWR.t10 sky130_fd_pr__pfet_01v8_hvt ad=0 pd=0 as=0 ps=0 w=0.87 l=1.05
**devattr d=9048,452
X38 VGND.t65 x2.GN4.t5 x2.GP4.t2 VGND.t64 sky130_fd_pr__nfet_01v8 ad=0 pd=0 as=0 ps=0 w=0.65 l=0.15
**devattr s=3510,184 d=6760,364
X39 VGND.t5 VPWR.t73 VGND.t4 VGND.t3 sky130_fd_pr__nfet_01v8 ad=0 pd=0 as=0 ps=0 w=0.55 l=1.05
**devattr d=5720,324
X40 a_5329_n4513# x1.nSEL1 VGND.t15 VGND.t14 sky130_fd_pr__nfet_01v8 ad=0.0567 pd=0.69 as=0 ps=0 w=0.42 l=0.15
**devattr s=4472,208 d=2268,138
X41 VPWR.t2 VGND.t69 VPWR.t1 VPWR.t0 sky130_fd_pr__pfet_01v8_hvt ad=0 pd=0 as=0 ps=0 w=0.87 l=1.05
**devattr d=9048,452
X42 a_5275_n4651# x1.nSEL0 a_5329_n4513# VGND.t46 sky130_fd_pr__nfet_01v8 ad=0.1176 pd=1.4 as=0.0567 ps=0.69 w=0.42 l=0.15
**devattr s=2268,138 d=4704,280
X43 A4.t2 x2.GP4.t5 Z4.t3 VPWR.t3 sky130_fd_pr__pfet_01v8_lvt ad=0 pd=0 as=0 ps=0 w=10 l=0.35
**devattr s=116000,4116 d=116000,4116
X44 a_5275_n2995# select0.t7 VPWR.t21 VPWR.t20 sky130_fd_pr__pfet_01v8_hvt ad=0.0567 pd=0.69 as=0 ps=0 w=0.42 l=0.15
**devattr s=6662,278 d=2268,138
X45 VPWR.t28 x2.GN3 x2.GP3 VPWR.t27 sky130_fd_pr__pfet_01v8_hvt ad=0 pd=0 as=0.135 ps=1.27 w=1 l=0.15
**devattr s=5400,254 d=10400,504
X46 VPWR.t32 a_5275_n4651# x2.GN1.t0 VPWR.t31 sky130_fd_pr__pfet_01v8_hvt ad=0 pd=0 as=0 ps=0 w=1 l=0.15
**devattr s=19000,590 d=6662,278
X47 Z4.t1 x2.GN4.t6 A4.t1 VGND.t12 sky130_fd_pr__nfet_01v8_lvt ad=0 pd=0 as=0 ps=0 w=8 l=0.35
**devattr s=92800,3316 d=92800,3316
X48 VGND.t2 VPWR.t74 VGND.t1 VGND.t0 sky130_fd_pr__nfet_01v8 ad=0 pd=0 as=0 ps=0 w=0.55 l=1.05
**devattr d=5720,324
X49 Z4.t0 x2.GN4.t7 A4.t0 VGND.t12 sky130_fd_pr__nfet_01v8_lvt ad=0 pd=0 as=0 ps=0 w=8 l=0.35
**devattr s=92800,3316 d=92800,3316
X50 VPWR.t7 select1.t3 a_5275_n2995# VPWR.t6 sky130_fd_pr__pfet_01v8_hvt ad=0 pd=0 as=0.0567 ps=0.69 w=0.42 l=0.15
**devattr s=2268,138 d=4704,280
X51 a_5275_n3683# select1.t4 VPWR.t56 VPWR.t27 sky130_fd_pr__pfet_01v8_hvt ad=0.0609 pd=0.71 as=0 ps=0 w=0.42 l=0.15
**devattr s=9116,348 d=2436,142
X52 nselect2.t3 select2.t2 VGND.t20 VGND.t19 sky130_fd_pr__nfet_01v8 ad=0 pd=0 as=0 ps=0 w=0.65 l=0.15
**devattr s=6760,364 d=3510,184
X53 a_5275_n4235# a_5275_n4059# a_5301_n4107# VGND.t13 sky130_fd_pr__nfet_01v8 ad=0.1092 pd=1.36 as=0.0504 ps=0.66 w=0.42 l=0.15
**devattr s=2016,132 d=4368,272
X54 VGND.t35 select2.t3 nselect2.t2 VGND.t34 sky130_fd_pr__nfet_01v8 ad=0 pd=0 as=0 ps=0 w=0.65 l=0.15
**devattr s=3510,184 d=6760,364
X55 x2.GP3 x2.GN3 VGND.t24 VGND.t23 sky130_fd_pr__nfet_01v8 ad=0.08775 pd=0.92 as=0 ps=0 w=0.65 l=0.15
**devattr s=6760,364 d=3510,184
X56 VPWR.t59 VGND.t70 VPWR.t58 VPWR.t57 sky130_fd_pr__pfet_01v8_hvt ad=0 pd=0 as=0 ps=0 w=0.87 l=1.05
**devattr d=9048,452
X57 A2.t0 x2.GP2.t5 Z2.t1 VPWR.t19 sky130_fd_pr__pfet_01v8_lvt ad=0 pd=0 as=0 ps=0 w=10 l=0.35
**devattr s=116000,4116 d=116000,4116
X58 VPWR.t61 select1.t5 x1.nSEL1 VPWR.t60 sky130_fd_pr__pfet_01v8_hvt ad=0 pd=0 as=0.135 ps=1.27 w=1 l=0.15
**devattr s=5400,254 d=10400,504
X59 x1.nSEL1 select1.t6 VGND.t67 VGND.t66 sky130_fd_pr__nfet_01v8 ad=0.08775 pd=0.92 as=0 ps=0 w=0.65 l=0.15
**devattr s=6760,364 d=3510,184
X60 x2.GP2.t2 x2.GN2 VGND.t30 VGND.t29 sky130_fd_pr__nfet_01v8 ad=0 pd=0 as=0 ps=0 w=0.65 l=0.15
**devattr s=6760,364 d=3510,184
X61 VPWR.t55 a_5275_n4235# x2.GN2 VPWR.t54 sky130_fd_pr__pfet_01v8_hvt ad=0 pd=0 as=0.26 ps=2.52 w=1 l=0.15
**devattr s=10400,504 d=9116,348
X62 Z2.t2 x2.GN2 A2.t3 VGND.t28 sky130_fd_pr__nfet_01v8_lvt ad=0 pd=0 as=0 ps=0 w=8 l=0.35
**devattr s=92800,3316 d=92800,3316
X63 a_5329_n2857# select0.t8 VGND.t48 VGND.t47 sky130_fd_pr__nfet_01v8 ad=0.0567 pd=0.69 as=0 ps=0 w=0.42 l=0.15
**devattr s=4472,208 d=2268,138
X64 A1.t1 x2.GP1.t5 Z1.t1 VPWR.t53 sky130_fd_pr__pfet_01v8_lvt ad=0 pd=0 as=0 ps=0 w=10 l=0.35
**devattr s=116000,4116 d=116000,4116
X65 Z2.t3 x2.GN2 A2.t2 VGND.t28 sky130_fd_pr__nfet_01v8_lvt ad=0 pd=0 as=0 ps=0 w=8 l=0.35
**devattr s=92800,3316 d=92800,3316
X66 VPWR.t38 a_5275_n2995# x2.GN4.t0 VPWR.t37 sky130_fd_pr__pfet_01v8_hvt ad=0 pd=0 as=0 ps=0 w=1 l=0.15
**devattr s=19000,590 d=6662,278
X67 VPWR.t24 VGND.t71 VPWR.t23 VPWR.t22 sky130_fd_pr__pfet_01v8_hvt ad=0 pd=0 as=0 ps=0 w=0.87 l=1.05
**devattr d=9048,452
X68 VGND.t22 x2.GN3 x2.GP3 VGND.t21 sky130_fd_pr__nfet_01v8 ad=0 pd=0 as=0.08775 ps=0.92 w=0.65 l=0.15
**devattr s=3510,184 d=6760,364
X69 VPWR.t34 x2.GN2 x2.GP2.t1 VPWR.t33 sky130_fd_pr__pfet_01v8_hvt ad=0 pd=0 as=0 ps=0 w=1 l=0.15
**devattr s=5400,254 d=10400,504
X70 x1.nSEL0 select0.t9 VPWR.t26 VPWR.t25 sky130_fd_pr__pfet_01v8_hvt ad=0.135 pd=1.27 as=0 ps=0 w=1 l=0.15
**devattr s=10400,504 d=5400,254
X71 Z1.t3 x2.GN1.t4 A1.t3 VGND.t18 sky130_fd_pr__nfet_01v8_lvt ad=0 pd=0 as=0 ps=0 w=8 l=0.35
**devattr s=92800,3316 d=92800,3316
X72 x2.GP1.t2 x2.GN1.t5 VPWR.t46 VPWR.t45 sky130_fd_pr__pfet_01v8_hvt ad=0 pd=0 as=0 ps=0 w=1 l=0.15
**devattr s=10400,504 d=5400,254
X73 Z1.t0 x2.GN1.t6 A1.t0 VGND.t18 sky130_fd_pr__nfet_01v8_lvt ad=0 pd=0 as=0 ps=0 w=8 l=0.35
**devattr s=92800,3316 d=92800,3316
X74 a_5275_n2995# select1.t7 a_5329_n2857# VGND.t33 sky130_fd_pr__nfet_01v8 ad=0.1176 pd=1.4 as=0.0567 ps=0.69 w=0.42 l=0.15
**devattr s=2268,138 d=4704,280
X75 a_5301_n3555# select1.t8 VGND.t41 VGND.t40 sky130_fd_pr__nfet_01v8 ad=0.0504 pd=0.66 as=0 ps=0 w=0.42 l=0.15
**devattr s=4052,198 d=2016,132
X76 VGND.t58 a_5275_n3683# x2.GN3 VGND.t57 sky130_fd_pr__nfet_01v8 ad=0 pd=0 as=0.169 ps=1.82 w=0.65 l=0.15
**devattr s=6760,364 d=4052,198
X77 VGND.t63 select1.t9 a_5275_n4059# VGND.t62 sky130_fd_pr__nfet_01v8 ad=0 pd=0 as=0.1092 ps=1.36 w=0.42 l=0.15
**devattr s=4368,272 d=4368,272
X78 VPWR.t69 x2.GN1.t7 x2.GP1.t3 VPWR.t68 sky130_fd_pr__pfet_01v8_hvt ad=0 pd=0 as=0 ps=0 w=1 l=0.15
**devattr s=5400,254 d=10400,504
X79 A3.t2 x2.GP3 Z3.t3 VPWR.t70 sky130_fd_pr__pfet_01v8_lvt ad=0 pd=0 as=0 ps=0 w=10 l=0.35
**devattr s=116000,4116 d=116000,4116
R0 x2.GP2.n4 x2.GP2.t4 450.938
R1 x2.GP2.n4 x2.GP2.t5 445.666
R2 x2.GP2.n5 x2.GP2.n3 195.958
R3 x2.GP2.n1 x2.GP2.n0 101.49
R4 x2.GP2.n3 x2.GP2.t1 26.5955
R5 x2.GP2.n3 x2.GP2.t0 26.5955
R6 x2.GP2.n0 x2.GP2.t3 24.9236
R7 x2.GP2.n0 x2.GP2.t2 24.9236
R8 x1.gpo1 x2.x2.GP 13.129
R9 x2.GP2.n5 x1.gpo1 11.995
R10 x2.GP2.n2 x1.x12.Y 10.7525
R11 x1.x12.Y x2.GP2.n5 7.96524
R12 x2.GP2.n2 x1.x12.Y 6.6565
R13 x1.x12.Y x2.GP2.n2 5.04292
R14 x2.x2.GP x2.GP2.n4 2.94361
R15 x1.x12.Y x2.GP2.n1 2.5605
R16 x2.GP2.n1 x1.x12.Y 1.93989
R17 Z2.n1 Z2.t1 23.6581
R18 Z2.n3 Z2.t0 23.3739
R19 Z2.n1 Z2.t2 10.7528
R20 Z2.n0 Z2.t3 10.6417
R21 Z2.n2 Z2.n1 1.30064
R22 Z2.n5 Z2.n4 0.936641
R23 Z2.n3 Z2.n2 0.726502
R24 Z2.n2 Z2.n0 0.512491
R25 Z2.n4 Z2.n0 0.359663
R26 Z2.n4 Z2.n3 0.216071
R27 Z2.n5 Z2 0.0776605
R28 Z2 Z2.n5 0.0561931
R29 A2.n1 A2.t1 26.3998
R30 A2.n1 A2.t0 23.5483
R31 A2.n0 A2.t2 12.7127
R32 A2.n0 A2.t3 10.8578
R33 A2.n2 A2.n1 3.12177
R34 A2.n2 A2.n0 1.81453
R35 A2.n3 A2.n2 1.1255
R36 A2.n3 A2 0.219402
R37 A2 A2.n3 0.0655
R38 VPWR.n57 VPWR.n55 8629.41
R39 VPWR.n60 VPWR.n54 8629.41
R40 VPWR.n40 VPWR.n39 8629.41
R41 VPWR.n42 VPWR.n37 8629.41
R42 VPWR.n23 VPWR.n22 8629.41
R43 VPWR.n25 VPWR.n20 8629.41
R44 VPWR.n6 VPWR.n4 8629.41
R45 VPWR.n9 VPWR.n3 8629.41
R46 VPWR.n56 VPWR.n53 920.471
R47 VPWR.n43 VPWR.n36 920.471
R48 VPWR.n26 VPWR.n19 920.471
R49 VPWR.n5 VPWR.n2 920.471
R50 VPWR.n62 VPWR.n53 914.447
R51 VPWR.n45 VPWR.n43 914.447
R52 VPWR.n28 VPWR.n26 914.447
R53 VPWR.n11 VPWR.n2 914.447
R54 VPWR.t58 VPWR.n127 804.731
R55 VPWR.n129 VPWR.t58 751.692
R56 VPWR.n101 VPWR.t7 671.408
R57 VPWR.n90 VPWR.t42 671.408
R58 VPWR VPWR.t57 630.375
R59 VPWR.n160 VPWR.n159 602.456
R60 VPWR.n182 VPWR.n70 602.456
R61 VPWR.n74 VPWR.n73 585
R62 VPWR.n76 VPWR.n75 585
R63 VPWR.n56 VPWR.n51 480.764
R64 VPWR.n36 VPWR.n34 480.764
R65 VPWR.n19 VPWR.n17 480.764
R66 VPWR.n5 VPWR.n1 480.764
R67 VPWR VPWR.t22 458.724
R68 VPWR.t57 VPWR 458.724
R69 VPWR.n122 VPWR.t64 420.25
R70 VPWR.n118 VPWR.t23 388.656
R71 VPWR.n153 VPWR.t24 388.656
R72 VPWR.n131 VPWR.t59 388.656
R73 VPWR.n104 VPWR.t1 388.656
R74 VPWR.n113 VPWR.t2 388.656
R75 VPWR.n78 VPWR.t11 388.656
R76 VPWR.n83 VPWR.t12 388.656
R77 VPWR.n64 VPWR.n51 379.2
R78 VPWR.n47 VPWR.n34 379.2
R79 VPWR.n30 VPWR.n17 379.2
R80 VPWR.n13 VPWR.n1 379.2
R81 VPWR VPWR.t60 369.938
R82 VPWR VPWR.t51 369.938
R83 VPWR.n107 VPWR.n100 322.329
R84 VPWR.n85 VPWR.n81 322.329
R85 VPWR.n164 VPWR.n162 259.697
R86 VPWR.n140 VPWR.t52 255.905
R87 VPWR.n145 VPWR.t61 255.905
R88 VPWR.n121 VPWR.t65 255.905
R89 VPWR.n161 VPWR.t28 255.905
R90 VPWR.n111 VPWR.t63 254.475
R91 VPWR.n136 VPWR.t26 252.95
R92 VPWR.n141 VPWR.t67 252.95
R93 VPWR.n146 VPWR.t40 252.95
R94 VPWR.n181 VPWR.t36 252.95
R95 VPWR.n160 VPWR.t9 251.516
R96 VPWR.n71 VPWR.t69 250.724
R97 VPWR.n69 VPWR.t34 250.724
R98 VPWR.t64 VPWR.t39 248.599
R99 VPWR.t60 VPWR.t66 248.599
R100 VPWR.t51 VPWR.t25 248.599
R101 VPWR.n176 VPWR.t46 248.219
R102 VPWR.n163 VPWR.t30 248.219
R103 VPWR.n122 VPWR 221.964
R104 VPWR.n129 VPWR.t73 215.827
R105 VPWR.n111 VPWR.n110 213.119
R106 VPWR.n151 VPWR.n122 213.119
R107 VPWR.n119 VPWR.t74 210.964
R108 VPWR.n105 VPWR.t72 210.964
R109 VPWR.n80 VPWR.t71 210.964
R110 VPWR.n171 VPWR.n170 209.368
R111 VPWR.t39 VPWR 198.287
R112 VPWR.t66 VPWR 198.287
R113 VPWR.t25 VPWR 198.287
R114 VPWR.n173 VPWR.n172 183.673
R115 VPWR VPWR.t37 182.952
R116 VPWR VPWR.n171 182.952
R117 VPWR.t31 VPWR 182.952
R118 VPWR.n75 VPWR.n74 159.476
R119 VPWR.n162 VPWR.t56 157.014
R120 VPWR.t68 VPWR.t43 154.417
R121 VPWR.t49 VPWR.t27 147.703
R122 VPWR.t20 VPWR.t6 140.989
R123 VPWR.t27 VPWR.t29 140.989
R124 VPWR.t35 VPWR.t33 140.989
R125 VPWR.t45 VPWR.t68 140.989
R126 VPWR.t41 VPWR.t13 140.989
R127 VPWR.n162 VPWR.t48 137.079
R128 VPWR.n110 VPWR 125.883
R129 VPWR.n172 VPWR 125.883
R130 VPWR.n100 VPWR.t21 116.341
R131 VPWR.n81 VPWR.t14 116.341
R132 VPWR.t6 VPWR 112.457
R133 VPWR.t29 VPWR 112.457
R134 VPWR VPWR.t41 112.457
R135 VPWR VPWR.t54 109.1
R136 VPWR.t0 VPWR.t20 104.064
R137 VPWR.t13 VPWR.t10 104.064
R138 VPWR.t15 VPWR 102.385
R139 VPWR.t62 VPWR 99.0288
R140 VPWR.n159 VPWR.t50 96.1553
R141 VPWR.n70 VPWR.t5 96.1553
R142 VPWR VPWR.t4 92.315
R143 VPWR.n74 VPWR.t44 86.7743
R144 VPWR.n110 VPWR.t62 83.9228
R145 VPWR.n171 VPWR.t47 80.5659
R146 VPWR.t37 VPWR.t0 77.209
R147 VPWR.t10 VPWR.t31 77.209
R148 VPWR.n75 VPWR.t55 66.8398
R149 VPWR.n63 VPWR.n62 66.6358
R150 VPWR.n46 VPWR.n45 66.6358
R151 VPWR.n29 VPWR.n28 66.6358
R152 VPWR.n12 VPWR.n11 66.6358
R153 VPWR.n159 VPWR.t16 63.3219
R154 VPWR.n70 VPWR.t18 63.3219
R155 VPWR VPWR.t49 62.103
R156 VPWR.n57 VPWR.n56 61.6672
R157 VPWR.n61 VPWR.n60 61.6672
R158 VPWR.n40 VPWR.n36 61.6672
R159 VPWR.n37 VPWR.n35 61.6672
R160 VPWR.n23 VPWR.n19 61.6672
R161 VPWR.n20 VPWR.n18 61.6672
R162 VPWR.n6 VPWR.n5 61.6672
R163 VPWR.n10 VPWR.n9 61.6672
R164 VPWR.n58 VPWR.n57 60.9564
R165 VPWR.n60 VPWR.n59 60.9564
R166 VPWR.n41 VPWR.n40 60.9564
R167 VPWR.n38 VPWR.n37 60.9564
R168 VPWR.n24 VPWR.n23 60.9564
R169 VPWR.n21 VPWR.n20 60.9564
R170 VPWR.n7 VPWR.n6 60.9564
R171 VPWR.n9 VPWR.n8 60.9564
R172 VPWR.n46 VPWR.n35 60.6123
R173 VPWR.n29 VPWR.n18 60.6123
R174 VPWR.n63 VPWR.n52 59.4829
R175 VPWR.n12 VPWR.n0 58.7299
R176 VPWR.t43 VPWR 55.3892
R177 VPWR.t17 VPWR 52.0323
R178 VPWR VPWR.t47 45.3185
R179 VPWR VPWR.t8 41.9616
R180 VPWR.n58 VPWR.n54 38.5759
R181 VPWR.n59 VPWR.n55 38.5759
R182 VPWR.n42 VPWR.n41 38.5759
R183 VPWR.n39 VPWR.n38 38.5759
R184 VPWR.n25 VPWR.n24 38.5759
R185 VPWR.n22 VPWR.n21 38.5759
R186 VPWR.n7 VPWR.n3 38.5759
R187 VPWR.n8 VPWR.n4 38.5759
R188 VPWR.n170 VPWR.n92 34.6358
R189 VPWR.n170 VPWR.n93 34.6358
R190 VPWR.n175 VPWR.n174 34.6358
R191 VPWR.n172 VPWR 28.5341
R192 VPWR.n100 VPWR.t38 28.4453
R193 VPWR.n81 VPWR.t32 28.4453
R194 VPWR.n177 VPWR.n176 28.3534
R195 VPWR.n174 VPWR.n173 25.6953
R196 VPWR.n140 VPWR.n125 25.224
R197 VPWR.n136 VPWR.n125 25.224
R198 VPWR.n145 VPWR.n124 25.224
R199 VPWR.n141 VPWR.n124 25.224
R200 VPWR.n147 VPWR.n121 25.224
R201 VPWR.n147 VPWR.n146 25.224
R202 VPWR.n165 VPWR.n161 25.224
R203 VPWR.n111 VPWR.n95 23.7181
R204 VPWR VPWR.n101 23.252
R205 VPWR.n160 VPWR.n95 21.4593
R206 VPWR.n141 VPWR.n140 20.3299
R207 VPWR.n146 VPWR.n145 20.3299
R208 VPWR.t4 VPWR.t35 20.1418
R209 VPWR.n182 VPWR.n69 19.9534
R210 VPWR.n181 VPWR.n180 19.8181
R211 VPWR.n151 VPWR.n121 17.3181
R212 VPWR.n164 VPWR.n163 17.3181
R213 VPWR.n161 VPWR.n160 16.5652
R214 VPWR.n165 VPWR.n164 16.5652
R215 VPWR.n136 VPWR.n135 15.8123
R216 VPWR.n152 VPWR.n151 14.2735
R217 VPWR.n112 VPWR.n111 14.2735
R218 VPWR.n174 VPWR.n90 13.9299
R219 VPWR.n67 VPWR.n66 13.6791
R220 VPWR.n182 VPWR.n181 13.5534
R221 VPWR.n117 VPWR.n116 11.4366
R222 VPWR.n65 VPWR.n64 11.3235
R223 VPWR.n48 VPWR.n47 11.3235
R224 VPWR.n31 VPWR.n30 11.3235
R225 VPWR.n14 VPWR.n13 11.3235
R226 VPWR.n173 VPWR.n91 11.2937
R227 VPWR.n157 VPWR.n156 11.2737
R228 VPWR.t8 VPWR.t15 10.0712
R229 VPWR.n131 VPWR.n128 9.60526
R230 VPWR.n118 VPWR.n117 9.60526
R231 VPWR.n83 VPWR.n82 9.60526
R232 VPWR.n120 VPWR.n96 9.3005
R233 VPWR.n155 VPWR.n154 9.3005
R234 VPWR.n152 VPWR.n97 9.3005
R235 VPWR.n151 VPWR.n150 9.3005
R236 VPWR.n146 VPWR.n123 9.3005
R237 VPWR.n142 VPWR.n141 9.3005
R238 VPWR.n137 VPWR.n136 9.3005
R239 VPWR.n133 VPWR.n132 9.3005
R240 VPWR.n138 VPWR.n125 9.3005
R241 VPWR.n140 VPWR.n139 9.3005
R242 VPWR.n143 VPWR.n124 9.3005
R243 VPWR.n145 VPWR.n144 9.3005
R244 VPWR.n148 VPWR.n147 9.3005
R245 VPWR.n149 VPWR.n121 9.3005
R246 VPWR.n178 VPWR.n177 9.3005
R247 VPWR.n183 VPWR.n182 9.3005
R248 VPWR.n167 VPWR.n92 9.3005
R249 VPWR.n160 VPWR.n158 9.3005
R250 VPWR.n111 VPWR.n109 9.3005
R251 VPWR.n103 VPWR.n102 9.3005
R252 VPWR.n106 VPWR.n98 9.3005
R253 VPWR.n115 VPWR.n114 9.3005
R254 VPWR.n112 VPWR.n99 9.3005
R255 VPWR.n108 VPWR.n95 9.3005
R256 VPWR.n161 VPWR.n94 9.3005
R257 VPWR.n166 VPWR.n165 9.3005
R258 VPWR.n170 VPWR.n169 9.3005
R259 VPWR.n168 VPWR.n93 9.3005
R260 VPWR.n181 VPWR.n68 9.3005
R261 VPWR.n180 VPWR.n179 9.3005
R262 VPWR.n175 VPWR.n72 9.3005
R263 VPWR.n174 VPWR.n77 9.3005
R264 VPWR.n89 VPWR.n88 9.3005
R265 VPWR.n87 VPWR.n86 9.3005
R266 VPWR.n84 VPWR.n79 9.3005
R267 VPWR.n15 VPWR.n0 8.23557
R268 VPWR.n76 VPWR.n73 6.8005
R269 VPWR.n135 VPWR.n127 6.48583
R270 VPWR.n62 VPWR.n61 6.02403
R271 VPWR.n11 VPWR.n10 6.02403
R272 VPWR.n130 VPWR.n129 5.8885
R273 VPWR.n44 VPWR.n35 4.89462
R274 VPWR.n28 VPWR.n27 4.89462
R275 VPWR.n154 VPWR.n120 4.67352
R276 VPWR.n135 VPWR.n134 4.62124
R277 VPWR.n132 VPWR.n131 4.36875
R278 VPWR.n154 VPWR.n153 4.36875
R279 VPWR.n114 VPWR.n113 4.36875
R280 VPWR.n84 VPWR.n83 4.36875
R281 VPWR.t33 VPWR.t17 3.35739
R282 VPWR.t54 VPWR.t45 3.35739
R283 VPWR.n44 VPWR.n33 3.23917
R284 VPWR.n27 VPWR.n16 3.23136
R285 VPWR.n52 VPWR.n50 3.22655
R286 VPWR.n132 VPWR.n130 3.2005
R287 VPWR.n54 VPWR.n53 2.84665
R288 VPWR.n55 VPWR.n51 2.84665
R289 VPWR.n43 VPWR.n42 2.84665
R290 VPWR.n39 VPWR.n34 2.84665
R291 VPWR.n26 VPWR.n25 2.84665
R292 VPWR.n22 VPWR.n17 2.84665
R293 VPWR.n3 VPWR.n2 2.84665
R294 VPWR.n4 VPWR.n1 2.84665
R295 VPWR.n130 VPWR.n127 2.8165
R296 VPWR.n107 VPWR.n106 2.54018
R297 VPWR.n86 VPWR.n85 2.54018
R298 VPWR.n120 VPWR.n119 2.33701
R299 VPWR.n106 VPWR.n105 2.33701
R300 VPWR.n86 VPWR.n80 2.33701
R301 VPWR.n64 VPWR.n63 2.28169
R302 VPWR.n47 VPWR.n46 2.28169
R303 VPWR.n30 VPWR.n29 2.28169
R304 VPWR.n13 VPWR.n12 2.28169
R305 VPWR.n114 VPWR.n107 2.13383
R306 VPWR.n85 VPWR.n84 2.13383
R307 VPWR.n119 VPWR.n118 2.03225
R308 VPWR.n105 VPWR.n104 2.03225
R309 VPWR.n80 VPWR.n78 2.03225
R310 VPWR.n10 VPWR.n0 1.88285
R311 VPWR.n185 VPWR.n184 1.753
R312 VPWR.n93 VPWR.n69 1.50638
R313 VPWR.n177 VPWR.n76 1.4005
R314 VPWR.n103 VPWR.n101 1.37193
R315 VPWR.n90 VPWR.n89 1.37193
R316 VPWR.n49 VPWR.n48 1.143
R317 VPWR.n32 VPWR.n31 1.143
R318 VPWR.n66 VPWR.n65 1.13925
R319 VPWR.n15 VPWR.n14 1.13675
R320 VPWR.n61 VPWR.n52 1.12991
R321 VPWR.n45 VPWR.n44 1.12991
R322 VPWR.n27 VPWR.n18 1.12991
R323 VPWR.n126 VPWR 1.06099
R324 VPWR.n33 VPWR.n32 0.862816
R325 VPWR.n16 VPWR.n15 0.770881
R326 VPWR.n163 VPWR.n92 0.753441
R327 VPWR.n176 VPWR.n175 0.753441
R328 VPWR.n50 VPWR.n49 0.729231
R329 VPWR.n73 VPWR.n71 0.6005
R330 VPWR.n185 VPWR.n67 0.511794
R331 VPWR VPWR.n185 0.460219
R332 VPWR.n66 VPWR.n50 0.405788
R333 VPWR.n180 VPWR.n71 0.4005
R334 VPWR.n32 VPWR.n16 0.392323
R335 VPWR.n49 VPWR.n33 0.360318
R336 VPWR.n153 VPWR.n152 0.305262
R337 VPWR.n104 VPWR.n103 0.305262
R338 VPWR.n113 VPWR.n112 0.305262
R339 VPWR.n89 VPWR.n78 0.305262
R340 VPWR.t53 VPWR.n58 0.27666
R341 VPWR.n59 VPWR.t53 0.27666
R342 VPWR.n41 VPWR.t19 0.27666
R343 VPWR.n38 VPWR.t19 0.27666
R344 VPWR.n24 VPWR.t70 0.27666
R345 VPWR.n21 VPWR.t70 0.27666
R346 VPWR.t3 VPWR.n7 0.27666
R347 VPWR.n8 VPWR.t3 0.27666
R348 VPWR.n134 VPWR.n133 0.180304
R349 VPWR.n134 VPWR 0.120408
R350 VPWR.n117 VPWR.n96 0.120292
R351 VPWR.n155 VPWR.n97 0.120292
R352 VPWR.n149 VPWR.n148 0.120292
R353 VPWR.n148 VPWR.n123 0.120292
R354 VPWR.n144 VPWR.n143 0.120292
R355 VPWR.n143 VPWR.n142 0.120292
R356 VPWR.n139 VPWR.n138 0.120292
R357 VPWR.n138 VPWR.n137 0.120292
R358 VPWR.n133 VPWR.n128 0.120292
R359 VPWR.n102 VPWR.n98 0.120292
R360 VPWR.n115 VPWR.n99 0.120292
R361 VPWR.n166 VPWR.n94 0.120292
R362 VPWR.n167 VPWR.n166 0.120292
R363 VPWR.n183 VPWR.n68 0.120292
R364 VPWR.n179 VPWR.n178 0.120292
R365 VPWR.n178 VPWR.n72 0.120292
R366 VPWR.n88 VPWR.n87 0.120292
R367 VPWR.n87 VPWR.n79 0.120292
R368 VPWR.n82 VPWR.n79 0.120292
R369 VPWR.n156 VPWR.n96 0.11899
R370 VPWR.n102 VPWR 0.0981562
R371 VPWR.n157 VPWR 0.0955521
R372 VPWR.n116 VPWR.n98 0.0916458
R373 VPWR.n65 VPWR 0.06425
R374 VPWR.n48 VPWR 0.06425
R375 VPWR.n31 VPWR 0.06425
R376 VPWR.n14 VPWR 0.06425
R377 VPWR.n150 VPWR 0.0603958
R378 VPWR VPWR.n149 0.0603958
R379 VPWR.n144 VPWR 0.0603958
R380 VPWR.n139 VPWR 0.0603958
R381 VPWR.n109 VPWR 0.0603958
R382 VPWR VPWR.n108 0.0603958
R383 VPWR VPWR.n94 0.0603958
R384 VPWR.n169 VPWR 0.0603958
R385 VPWR VPWR.n168 0.0603958
R386 VPWR.n179 VPWR 0.0603958
R387 VPWR.n88 VPWR 0.0603958
R388 VPWR.n91 VPWR 0.0590938
R389 VPWR.n184 VPWR 0.0525833
R390 VPWR.n184 VPWR.n183 0.0460729
R391 VPWR.n109 VPWR 0.0382604
R392 VPWR VPWR.n126 0.0369583
R393 VPWR.n150 VPWR 0.03175
R394 VPWR.n169 VPWR 0.03175
R395 VPWR.n116 VPWR.n115 0.0291458
R396 VPWR.n67 VPWR 0.0236148
R397 VPWR VPWR.n97 0.0226354
R398 VPWR VPWR.n123 0.0226354
R399 VPWR.n142 VPWR 0.0226354
R400 VPWR.n137 VPWR 0.0226354
R401 VPWR.n128 VPWR 0.0226354
R402 VPWR VPWR.n99 0.0226354
R403 VPWR.n108 VPWR 0.0226354
R404 VPWR.n158 VPWR 0.0226354
R405 VPWR VPWR.n167 0.0226354
R406 VPWR.n168 VPWR 0.0226354
R407 VPWR VPWR.n68 0.0226354
R408 VPWR VPWR.n72 0.0226354
R409 VPWR VPWR.n77 0.0226354
R410 VPWR.n82 VPWR 0.0226354
R411 VPWR.n158 VPWR.n157 0.00310417
R412 VPWR.n156 VPWR.n155 0.00180208
R413 VPWR.n126 VPWR 0.00180208
R414 VPWR.n91 VPWR.n77 0.00180208
R415 x2.GP1.n4 x2.GP1.t4 450.938
R416 x2.GP1.n4 x2.GP1.t5 445.666
R417 x2.GP1.n5 x2.GP1.n3 195.832
R418 x2.GP1.n1 x2.GP1.n0 101.49
R419 x2.GP1.n3 x2.GP1.t3 26.5955
R420 x2.GP1.n3 x2.GP1.t2 26.5955
R421 x2.GP1.n0 x2.GP1.t1 24.9236
R422 x2.GP1.n0 x2.GP1.t0 24.9236
R423 x2.GP1.n5 x1.gpo0 11.8923
R424 x1.gpo0 x2.x1.GP 11.5413
R425 x2.GP1.n2 x1.x11.Y 10.7525
R426 x1.x11.Y x2.GP1.n5 8.09215
R427 x2.GP1.n2 x1.x11.Y 6.6565
R428 x1.x11.Y x2.GP1.n2 5.04292
R429 x2.x1.GP x2.GP1.n4 2.90754
R430 x1.x11.Y x2.GP1.n1 2.5605
R431 x2.GP1.n1 x1.x11.Y 1.93989
R432 Z1.n1 Z1.t1 23.6581
R433 Z1.n3 Z1.t2 23.3739
R434 Z1.n1 Z1.t3 10.7528
R435 Z1.n0 Z1.t0 10.6417
R436 Z1.n2 Z1.n1 1.30064
R437 Z1 Z1.n4 0.983856
R438 Z1.n3 Z1.n2 0.726502
R439 Z1.n2 Z1.n0 0.512491
R440 Z1.n4 Z1.n0 0.359663
R441 Z1.n4 Z1.n3 0.216071
R442 A1.n1 A1.t2 26.3998
R443 A1.n1 A1.t1 23.5483
R444 A1.n0 A1.t0 12.7127
R445 A1.n0 A1.t3 10.8578
R446 A1.n2 A1.n1 3.12177
R447 A1.n2 A1.n0 1.81453
R448 A1.n3 A1.n2 1.1255
R449 A1.n3 A1 0.21174
R450 A1 A1.n3 0.0655
R451 select0.n5 select0.t4 327.99
R452 select0.n9 select0.t3 293.969
R453 select0.n3 select0.t7 261.887
R454 select0.n1 select0.t9 212.081
R455 select0.n0 select0.t2 212.081
R456 select0.n5 select0.t0 199.457
R457 select0.n2 select0.n1 183.185
R458 select0.n3 select0.t8 155.847
R459 select0 select0.n9 154.065
R460 select0.n6 select0.n5 152
R461 select0.n4 select0.n3 152
R462 select0.n1 select0.t1 139.78
R463 select0.n0 select0.t6 139.78
R464 select0.n9 select0.t5 138.338
R465 select0.n1 select0.n0 61.346
R466 select0.n10 select0 13.4199
R467 select0.n8 select0.n4 11.9062
R468 select0.n11 select0.n8 11.7395
R469 select0.n12 select0.n11 11.5949
R470 select0.n12 select0.n2 9.68118
R471 select0.n7 select0 9.17383
R472 select0.n2 select0 5.8885
R473 select0.n10 select0 5.57469
R474 select0.n8 select0.n7 4.6505
R475 select0.n11 select0.n10 4.6505
R476 select0.n7 select0.n6 2.98717
R477 select0.n6 select0 2.34717
R478 select0.n4 select0 2.07109
R479 select0 select0.n12 0.559212
R480 VGND.n182 VGND.n181 545142
R481 VGND.n42 VGND.n41 20148.7
R482 VGND.n55 VGND.n10 19433.3
R483 VGND.n49 VGND.n48 19054.3
R484 VGND VGND.n180 11981.2
R485 VGND.n50 VGND.n11 11744.7
R486 VGND.n54 VGND.n11 11744.7
R487 VGND.n50 VGND.n12 11744.7
R488 VGND.n54 VGND.n12 11744.7
R489 VGND.n36 VGND.n22 11744.7
R490 VGND.n40 VGND.n22 11744.7
R491 VGND.n36 VGND.n23 11744.7
R492 VGND.n40 VGND.n23 11744.7
R493 VGND.n43 VGND.n16 11744.7
R494 VGND.n47 VGND.n16 11744.7
R495 VGND.n43 VGND.n17 11744.7
R496 VGND.n47 VGND.n17 11744.7
R497 VGND.n184 VGND.n4 11744.7
R498 VGND.n184 VGND.n5 11744.7
R499 VGND.n9 VGND.n5 11744.7
R500 VGND.n9 VGND.n4 11744.7
R501 VGND.n56 VGND.n7 5416.06
R502 VGND.n21 VGND.n7 5357.62
R503 VGND.n180 VGND.n56 3878.48
R504 VGND.n183 VGND.n182 2174.55
R505 VGND VGND.t55 1289.66
R506 VGND.n179 VGND.n178 1198.25
R507 VGND.n137 VGND.n135 1198.25
R508 VGND.n146 VGND.n6 1194.5
R509 VGND.n165 VGND.n164 1171.32
R510 VGND VGND.n6 918.774
R511 VGND.t26 VGND 918.774
R512 VGND.t40 VGND.t57 826.054
R513 VGND.t51 VGND.t60 826.054
R514 VGND.t62 VGND.t16 792.337
R515 VGND.n45 VGND.n44 767.294
R516 VGND.n8 VGND.n3 767.294
R517 VGND.n52 VGND.n51 763.106
R518 VGND.n38 VGND.n37 763.106
R519 VGND.n51 VGND.n15 732.236
R520 VGND.n37 VGND.n34 732.236
R521 VGND.n44 VGND.n20 732.236
R522 VGND.n8 VGND.n1 732.236
R523 VGND.n181 VGND.n6 708.047
R524 VGND.t34 VGND.t19 708.047
R525 VGND.t16 VGND.t66 708.047
R526 VGND.t49 VGND.t53 708.047
R527 VGND.t46 VGND.t14 708.047
R528 VGND.n164 VGND.t9 681.482
R529 VGND.t19 VGND 564.751
R530 VGND.t53 VGND 564.751
R531 VGND VGND.t46 564.751
R532 VGND.n182 VGND 564.751
R533 VGND.t38 VGND.t47 554.492
R534 VGND.t14 VGND.t3 522.606
R535 VGND.n181 VGND.t38 513.419
R536 VGND.t13 VGND 480.461
R537 VGND.t6 VGND 459.26
R538 VGND.t9 VGND 459.26
R539 VGND.t47 VGND.t33 431.272
R540 VGND.t3 VGND.t26 387.74
R541 VGND VGND.t64 370.37
R542 VGND VGND.t21 370.37
R543 VGND.t42 VGND 370.37
R544 VGND.t33 VGND 343.991
R545 VGND.n135 VGND.t59 337.166
R546 VGND.n179 VGND.n57 334.815
R547 VGND.n46 VGND.n45 325.502
R548 VGND.n185 VGND.n3 325.502
R549 VGND.n135 VGND.t40 320.307
R550 VGND.n53 VGND.n52 304.204
R551 VGND.n39 VGND.n38 304.204
R552 VGND.t59 VGND 295.019
R553 VGND.n180 VGND.t6 278.519
R554 VGND VGND.t62 261.303
R555 VGND.t64 VGND.t44 248.889
R556 VGND.t21 VGND.t23 248.889
R557 VGND.t29 VGND.t31 248.889
R558 VGND.t36 VGND.t42 248.889
R559 VGND.t0 VGND 244.445
R560 VGND.n53 VGND.n13 242.448
R561 VGND.n39 VGND.n24 242.448
R562 VGND.n46 VGND.n18 242.448
R563 VGND.n186 VGND.n185 242.448
R564 VGND.n10 VGND.t18 241.579
R565 VGND.n153 VGND.t63 240.575
R566 VGND.n133 VGND.t56 237.327
R567 VGND VGND.n179 222.222
R568 VGND.n164 VGND 222.222
R569 VGND.n112 VGND.t68 218.308
R570 VGND.n88 VGND.t69 218.308
R571 VGND.n70 VGND.t70 218.308
R572 VGND.n140 VGND.t71 218.308
R573 VGND.n109 VGND.t10 214.456
R574 VGND.n111 VGND.t11 214.456
R575 VGND.n122 VGND.t7 214.456
R576 VGND.n89 VGND.t8 214.456
R577 VGND.n65 VGND.t4 214.456
R578 VGND.n69 VGND.t5 214.456
R579 VGND.n145 VGND.t1 214.456
R580 VGND.n139 VGND.t2 214.456
R581 VGND.n127 VGND.n126 204.457
R582 VGND.n78 VGND.n77 200.231
R583 VGND.n83 VGND.n82 200.231
R584 VGND.n72 VGND.n67 200.105
R585 VGND.t44 VGND 198.519
R586 VGND.t23 VGND 198.519
R587 VGND VGND.t29 198.519
R588 VGND VGND.t36 198.519
R589 VGND.n45 VGND.n17 195
R590 VGND.t25 VGND.n17 195
R591 VGND.n19 VGND.n16 195
R592 VGND.t25 VGND.n16 195
R593 VGND.n38 VGND.n23 195
R594 VGND.t12 VGND.n23 195
R595 VGND.n33 VGND.n22 195
R596 VGND.t12 VGND.n22 195
R597 VGND.n52 VGND.n12 195
R598 VGND.n12 VGND.t28 195
R599 VGND.n14 VGND.n11 195
R600 VGND.n11 VGND.t28 195
R601 VGND.n4 VGND.n2 195
R602 VGND.n57 VGND.n4 195
R603 VGND.n5 VGND.n3 195
R604 VGND.t18 VGND.n5 195
R605 VGND VGND.t51 177.012
R606 VGND.n36 VGND.n35 174.921
R607 VGND.n42 VGND.t25 163.988
R608 VGND.n49 VGND.t28 163.85
R609 VGND.n100 VGND.t65 162.471
R610 VGND.n95 VGND.t22 162.471
R611 VGND.n177 VGND.t32 162.471
R612 VGND.n172 VGND.t43 162.471
R613 VGND.n154 VGND.t17 162.471
R614 VGND.n78 VGND.t50 160.046
R615 VGND.n83 VGND.t35 160.046
R616 VGND.n91 VGND.t45 160.017
R617 VGND.n58 VGND.t24 160.017
R618 VGND.n61 VGND.t30 160.017
R619 VGND.n170 VGND.t37 160.017
R620 VGND.n161 VGND.t54 160.017
R621 VGND.n156 VGND.t67 160.017
R622 VGND.n153 VGND.t20 158.534