* NGSPICE file created from mux4onehot_parax.ext - technology: sky130A

.subckt mux4onehot_parax select0 select1 A1 Z4 Z3 Z2 A2 Z1 A4 A3 VGND VPWR
X0 VGND.t97 passgatesCtrl_0.net2.t2 a_n597_n2040# VGND.t96 sky130_fd_pr__nfet_01v8 ad=0.1092 pd=1.36 as=0.0567 ps=0.69 w=0.42 l=0.15
X1 VGND.t140 VPWR.t176 VGND.t139 VGND.t138 sky130_fd_pr__nfet_01v8 ad=0.143 pd=1.62 as=0 ps=0 w=0.55 l=0.59
X2 VPWR.t66 VGND.t177 VPWR.t65 VPWR.t36 sky130_fd_pr__pfet_01v8_hvt ad=0.2262 pd=2.26 as=0 ps=0 w=0.87 l=0.59
X3 VGND.t142 VPWR.t177 VGND.t141 VGND.t30 sky130_fd_pr__nfet_01v8 ad=0.143 pd=1.62 as=0 ps=0 w=0.55 l=0.59
X4 VPWR.t64 VGND.t178 VPWR.t63 VPWR.t31 sky130_fd_pr__pfet_01v8_hvt ad=0.2262 pd=2.26 as=0 ps=0 w=0.87 l=1.05
X5 VGND.t41 a_n1361_n1429# passgatex4_0.GN3 VGND.t8 sky130_fd_pr__nfet_01v8 ad=0.0754 pd=0.81 as=0.1352 ps=1.56 w=0.52 l=0.15
X6 a_n1361_n1429# passgatesCtrl_0.net5 VGND.t9 VGND.t8 sky130_fd_pr__nfet_01v8 ad=0.1352 pd=1.56 as=0.0754 ps=0.81 w=0.52 l=0.15
X7 VGND.t99 select1.t0 a_n2480_n4368# VGND.t98 sky130_fd_pr__nfet_01v8 ad=0.097 pd=0.975 as=0.1092 ps=1.36 w=0.42 l=0.15
X8 VGND.t157 VPWR.t178 VGND.t156 VGND.t138 sky130_fd_pr__nfet_01v8 ad=0.143 pd=1.62 as=0 ps=0 w=0.55 l=0.59
X9 VGND.t53 a_n2189_n1429# passgatex4_0.GP3 VGND.t8 sky130_fd_pr__nfet_01v8 ad=0.0754 pd=0.81 as=0.1352 ps=1.56 w=0.52 l=0.15
X10 a_n2189_n1429# passgatesCtrl_0.net9 VPWR.t134 VPWR.t133 sky130_fd_pr__pfet_01v8_hvt ad=0.2054 pd=2.1 as=0.11455 ps=1.08 w=0.79 l=0.15
X11 passgatesCtrl_0.net6 a_n2975_n2192# VGND.t40 VGND.t39 sky130_fd_pr__nfet_01v8 ad=0.1352 pd=1.56 as=0.0754 ps=0.81 w=0.52 l=0.15
X12 a_n1084_n4216# a_n988_n4394# VGND.t112 VGND.t111 sky130_fd_pr__nfet_01v8 ad=0.1092 pd=1.36 as=0.097 ps=0.975 w=0.42 l=0.15
X13 VGND.t160 VPWR.t179 VGND.t159 VGND.t158 sky130_fd_pr__nfet_01v8 ad=0.143 pd=1.62 as=0 ps=0 w=0.55 l=1.05
X14 VPWR.t117 passgatesCtrl_0.net2.t3 a_n2161_n4368# VPWR.t116 sky130_fd_pr__pfet_01v8_hvt ad=0.14075 pd=1.325 as=0.1092 ps=1.36 w=0.42 l=0.15
X15 VPWR.t138 a_n715_n3850# passgatesCtrl_0._04_ VPWR.t137 sky130_fd_pr__pfet_01v8_hvt ad=0.2279 pd=1.74 as=0.26 ps=2.52 w=1 l=0.15
X16 VPWR.t62 VGND.t179 VPWR.t61 VPWR.t13 sky130_fd_pr__pfet_01v8_hvt ad=0.2262 pd=2.26 as=0 ps=0 w=0.87 l=0.59
X17 a_n1913_n1429# passgatesCtrl_0.net10.t3 VGND.t68 VGND.t8 sky130_fd_pr__nfet_01v8 ad=0.1352 pd=1.56 as=0.0754 ps=0.81 w=0.52 l=0.15
X18 a_n1173_n2218# a_n1003_n2040# a_n1045_n1942# VPWR.t86 sky130_fd_pr__pfet_01v8_hvt ad=0.1092 pd=1.36 as=0.0441 ps=0.63 w=0.42 l=0.15
X19 passgatex4_0.GN2 a_n951_n2736# VGND.t67 VGND.t66 sky130_fd_pr__nfet_01v8 ad=0.1352 pd=1.56 as=0.0754 ps=0.81 w=0.52 l=0.15
X20 a_n801_n4216# passgatesCtrl_0.net1.t2 VGND.t168 VGND.t167 sky130_fd_pr__nfet_01v8 ad=0.1092 pd=1.36 as=0.097 ps=0.975 w=0.42 l=0.15
X21 VPWR.t98 a_n1085_n1429# passgatex4_0.GP2 VPWR.t97 sky130_fd_pr__pfet_01v8_hvt ad=0.11455 pd=1.08 as=0.2054 ps=2.1 w=0.79 l=0.15
X22 Z3.t1 passgatex4_0.GN3 A3.t1 VGND.t154 sky130_fd_pr__nfet_01v8_lvt ad=2.32 pd=16.58 as=2.32 ps=16.58 w=8 l=0.35
X23 VPWR.t60 VGND.t180 VPWR.t59 VPWR.t41 sky130_fd_pr__pfet_01v8_hvt ad=0.2262 pd=2.26 as=0 ps=0 w=0.87 l=0.59
X24 Z3.t0 passgatex4_0.GN3 A3.t0 VGND.t154 sky130_fd_pr__nfet_01v8_lvt ad=2.32 pd=16.58 as=2.32 ps=16.58 w=8 l=0.35
X25 VPWR.t175 a_n1459_n3306# a_n1635_n3306# VPWR.t104 sky130_fd_pr__pfet_01v8_hvt ad=0.0714 pd=0.76 as=0.0609 ps=0.71 w=0.42 l=0.15
X26 passgatesCtrl_0.net10.t2 passgatesCtrl_0.net1.t3 a_n2429_n1328# VGND.t94 sky130_fd_pr__nfet_01v8 ad=0.169 pd=1.82 as=0.08775 ps=0.92 w=0.65 l=0.15
X27 VGND.t7 passgatesCtrl_0._01_ a_n1503_n2192# VGND.t6 sky130_fd_pr__nfet_01v8 ad=0.0754 pd=0.81 as=0.1352 ps=1.56 w=0.52 l=0.15
X28 VGND.t137 passgatesCtrl_0.net3 a_n1227_n2736# VGND.t136 sky130_fd_pr__nfet_01v8 ad=0.0754 pd=0.81 as=0.1352 ps=1.56 w=0.52 l=0.15
X29 VPWR.t4 a_n995_n3605# passgatesCtrl_0.net4 VPWR.t3 sky130_fd_pr__pfet_01v8_hvt ad=0.11455 pd=1.08 as=0.2054 ps=2.1 w=0.79 l=0.15
X30 passgatex4_0.GP1 a_n491_n3280# VGND.t145 VGND.t92 sky130_fd_pr__nfet_01v8 ad=0.1352 pd=1.56 as=0.0754 ps=0.81 w=0.52 l=0.15
X31 VGND.t105 passgatesCtrl_0.net7 a_n491_n3280# VGND.t104 sky130_fd_pr__nfet_01v8 ad=0.0754 pd=0.81 as=0.1352 ps=1.56 w=0.52 l=0.15
X32 VPWR.t74 passgatesCtrl_0._00_ a_n2883_n1648# VPWR.t73 sky130_fd_pr__pfet_01v8_hvt ad=0.11455 pd=1.08 as=0.2054 ps=2.1 w=0.79 l=0.15
X33 VGND.t173 VPWR.t180 VGND.t172 VGND.t171 sky130_fd_pr__nfet_01v8 ad=0.143 pd=1.62 as=0 ps=0 w=0.55 l=4.73
X34 a_n715_n3850# passgatesCtrl_0.net1.t4 VPWR.t8 VPWR.t7 sky130_fd_pr__pfet_01v8_hvt ad=0.0609 pd=0.71 as=0.2279 ps=1.74 w=0.42 l=0.15
X35 VPWR.t125 a_n1637_n1429# passgatex4_0.GN4 VPWR.t124 sky130_fd_pr__pfet_01v8_hvt ad=0.11455 pd=1.08 as=0.2054 ps=2.1 w=0.79 l=0.15
X36 passgatex4_0.GN1 a_n1227_n2736# VPWR.t159 VPWR.t99 sky130_fd_pr__pfet_01v8_hvt ad=0.2054 pd=2.1 as=0.11455 ps=1.08 w=0.79 l=0.15
X37 passgatesCtrl_0.net7 a_n675_n1648# VPWR.t121 VPWR.t120 sky130_fd_pr__pfet_01v8_hvt ad=0.2054 pd=2.1 as=0.11455 ps=1.08 w=0.79 l=0.15
X38 VGND.t155 passgatesCtrl_0._02_ a_n675_n1648# VGND.t8 sky130_fd_pr__nfet_01v8 ad=0.0754 pd=0.81 as=0.1352 ps=1.56 w=0.52 l=0.15
X39 A3.t2 passgatex4_0.GP3 Z3.t3 VPWR.t172 sky130_fd_pr__pfet_01v8_lvt ad=2.9 pd=20.58 as=2.9 ps=20.58 w=10 l=0.35
X40 VPWR.t58 VGND.t181 VPWR.t57 VPWR.t31 sky130_fd_pr__pfet_01v8_hvt ad=0.2262 pd=2.26 as=0 ps=0 w=0.87 l=0.59
X41 a_n482_n4216# select0.t0 VGND.t29 VGND.t28 sky130_fd_pr__nfet_01v8 ad=0.1092 pd=1.36 as=0.097 ps=0.975 w=0.42 l=0.15
X42 VGND.t175 VPWR.t181 VGND.t174 VGND.t45 sky130_fd_pr__nfet_01v8 ad=0.143 pd=1.62 as=0 ps=0 w=0.55 l=0.59
X43 a_n2185_n2218# a_n2015_n2040# a_n2057_n1942# VPWR.t170 sky130_fd_pr__pfet_01v8_hvt ad=0.1092 pd=1.36 as=0.0441 ps=0.63 w=0.42 l=0.15
X44 VPWR.t56 VGND.t182 VPWR.t55 VPWR.t13 sky130_fd_pr__pfet_01v8_hvt ad=0.2262 pd=2.26 as=0 ps=0 w=0.87 l=1.97
X45 VGND.t107 a_n1635_n3306# passgatesCtrl_0._03_ VGND.t106 sky130_fd_pr__nfet_01v8 ad=0.1013 pd=0.99 as=0.169 ps=1.82 w=0.65 l=0.15
X46 VPWR.t54 VGND.t183 VPWR.t53 VPWR.t16 sky130_fd_pr__pfet_01v8_hvt ad=0.2262 pd=2.26 as=0 ps=0 w=0.87 l=0.59
X47 VPWR.t52 VGND.t184 VPWR.t51 VPWR.t50 sky130_fd_pr__pfet_01v8_hvt ad=0.2262 pd=2.26 as=0 ps=0 w=0.87 l=1.05
X48 VPWR.t140 passgatesCtrl_0._05_ a_n2975_n2192# VPWR.t139 sky130_fd_pr__pfet_01v8_hvt ad=0.11455 pd=1.08 as=0.2054 ps=2.1 w=0.79 l=0.15
X49 VGND.t119 VPWR.t182 VGND.t118 VGND.t15 sky130_fd_pr__nfet_01v8 ad=0.143 pd=1.62 as=0 ps=0 w=0.55 l=0.59
X50 VPWR.t128 a_n1635_n3306# passgatesCtrl_0._03_ VPWR.t127 sky130_fd_pr__pfet_01v8_hvt ad=0.2279 pd=1.74 as=0.26 ps=2.52 w=1 l=0.15
X51 A2.t1 passgatex4_0.GP2 Z2.t0 VPWR.t85 sky130_fd_pr__pfet_01v8_lvt ad=2.9 pd=20.58 as=2.9 ps=20.58 w=10 l=0.35
X52 VGND.t122 VPWR.t183 VGND.t121 VGND.t120 sky130_fd_pr__nfet_01v8 ad=0.143 pd=1.62 as=0 ps=0 w=0.55 l=0.59
X53 VGND.t55 a_n1984_n4368# a_n1878_n4368# VGND.t54 sky130_fd_pr__nfet_01v8 ad=0.097 pd=0.975 as=0.1092 ps=1.36 w=0.42 l=0.15
X54 VPWR.t49 VGND.t185 VPWR.t48 VPWR.t19 sky130_fd_pr__pfet_01v8_hvt ad=0.2262 pd=2.26 as=0 ps=0 w=0.87 l=1.05
X55 a_n2189_n1429# passgatesCtrl_0.net9 VGND.t113 VGND.t8 sky130_fd_pr__nfet_01v8 ad=0.1352 pd=1.56 as=0.0754 ps=0.81 w=0.52 l=0.15
X56 VPWR.t146 a_n1173_n2218# passgatesCtrl_0._01_ VPWR.t145 sky130_fd_pr__pfet_01v8_hvt ad=0.14825 pd=1.34 as=0.27 ps=2.54 w=1 l=0.15
X57 VGND.t76 VPWR.t184 VGND.t75 VGND.t19 sky130_fd_pr__nfet_01v8 ad=0.143 pd=1.62 as=0 ps=0 w=0.55 l=1.05
X58 VGND.t52 a_n1003_n2040# a_n1173_n2218# VGND.t51 sky130_fd_pr__nfet_01v8 ad=0.1575 pd=1.17 as=0.0567 ps=0.69 w=0.42 l=0.15
X59 a_n2429_n1328# passgatesCtrl_0.net2.t4 VGND.t95 VGND.t94 sky130_fd_pr__nfet_01v8 ad=0.08775 pd=0.92 as=0.169 ps=1.82 w=0.65 l=0.15
X60 VGND.t131 a_n1173_n2218# passgatesCtrl_0._01_ VGND.t130 sky130_fd_pr__nfet_01v8 ad=0.101875 pd=0.99 as=0.1755 ps=1.84 w=0.65 l=0.15
X61 VGND.t5 a_n995_n3605# passgatesCtrl_0.net4 VGND.t4 sky130_fd_pr__nfet_01v8 ad=0.0754 pd=0.81 as=0.1352 ps=1.56 w=0.52 l=0.15
X62 VGND.t79 VPWR.t185 VGND.t78 VGND.t77 sky130_fd_pr__nfet_01v8 ad=0.143 pd=1.62 as=0 ps=0 w=0.55 l=4.73
X63 a_n1003_n2040# passgatesCtrl_0.net1.t5 VGND.t135 VGND.t66 sky130_fd_pr__nfet_01v8 ad=0.1092 pd=1.36 as=0.1575 ps=1.17 w=0.42 l=0.15
X64 VGND.t65 a_n1085_n1429# passgatex4_0.GP2 VGND.t8 sky130_fd_pr__nfet_01v8 ad=0.0754 pd=0.81 as=0.1352 ps=1.56 w=0.52 l=0.15
X65 passgatesCtrl_0.net2.t1 a_n2480_n4368# VGND.t134 VGND.t133 sky130_fd_pr__nfet_01v8 ad=0.169 pd=1.82 as=0.097 ps=0.975 w=0.65 l=0.15
X66 a_n1459_n3306# passgatesCtrl_0.net1.t6 VPWR.t155 VPWR.t104 sky130_fd_pr__pfet_01v8_hvt ad=0.1092 pd=1.36 as=0.0714 ps=0.76 w=0.42 l=0.15
X67 VPWR.t47 VGND.t186 VPWR.t46 VPWR.t13 sky130_fd_pr__pfet_01v8_hvt ad=0.2262 pd=2.26 as=0 ps=0 w=0.87 l=0.59
X68 a_n1085_n1429# passgatesCtrl_0.net8 VPWR.t84 VPWR.t83 sky130_fd_pr__pfet_01v8_hvt ad=0.2054 pd=2.1 as=0.11455 ps=1.08 w=0.79 l=0.15
X69 a_n715_n3850# a_n539_n3518# a_n587_n3458# VGND.t143 sky130_fd_pr__nfet_01v8 ad=0.1092 pd=1.36 as=0.0504 ps=0.66 w=0.42 l=0.15
X70 a_n587_n3458# passgatesCtrl_0.net1.t7 VGND.t115 VGND.t114 sky130_fd_pr__nfet_01v8 ad=0.0504 pd=0.66 as=0.1013 ps=0.99 w=0.42 l=0.15
X71 VGND.t21 VPWR.t186 VGND.t20 VGND.t19 sky130_fd_pr__nfet_01v8 ad=0.143 pd=1.62 as=0 ps=0 w=0.55 l=2.89
X72 passgatesCtrl_0.net2.t0 a_n2480_n4368# VPWR.t150 VPWR.t149 sky130_fd_pr__pfet_01v8_hvt ad=0.26 pd=2.52 as=0.14075 ps=1.325 w=1 l=0.15
X73 passgatesCtrl_0.net8 a_n1503_n2192# VGND.t26 VGND.t25 sky130_fd_pr__nfet_01v8 ad=0.1352 pd=1.56 as=0.0754 ps=0.81 w=0.52 l=0.15
X74 passgatex4_0.GN1 a_n1227_n2736# VGND.t153 VGND.t152 sky130_fd_pr__nfet_01v8 ad=0.1352 pd=1.56 as=0.0754 ps=0.81 w=0.52 l=0.15
X75 A4.t3 passgatex4_0.GP4 Z4.t2 VPWR.t163 sky130_fd_pr__pfet_01v8_lvt ad=2.9 pd=20.58 as=2.9 ps=20.58 w=10 l=0.35
X76 Z4.t0 passgatex4_0.GN4 A4.t1 VGND.t27 sky130_fd_pr__nfet_01v8_lvt ad=2.32 pd=16.58 as=2.32 ps=16.58 w=8 l=0.35
X77 Z2.t2 passgatex4_0.GN2 A2.t3 VGND.t108 sky130_fd_pr__nfet_01v8_lvt ad=2.32 pd=16.58 as=2.32 ps=16.58 w=8 l=0.35
X78 VPWR.t2 passgatesCtrl_0._03_ a_n1963_n3280# VPWR.t0 sky130_fd_pr__pfet_01v8_hvt ad=0.11455 pd=1.08 as=0.2054 ps=2.1 w=0.79 l=0.15
X79 VGND.t38 a_n801_n4216# a_n988_n4394# VGND.t37 sky130_fd_pr__nfet_01v8 ad=0.097 pd=0.975 as=0.169 ps=1.82 w=0.65 l=0.15
X80 passgatesCtrl_0.net9 a_n2883_n1648# VPWR.t144 VPWR.t143 sky130_fd_pr__pfet_01v8_hvt ad=0.2054 pd=2.1 as=0.11455 ps=1.08 w=0.79 l=0.15
X81 VGND.t24 VPWR.t187 VGND.t23 VGND.t22 sky130_fd_pr__nfet_01v8 ad=0.143 pd=1.62 as=0 ps=0 w=0.55 l=1.05
X82 VPWR.t153 a_n539_n3518# a_n715_n3850# VPWR.t152 sky130_fd_pr__pfet_01v8_hvt ad=0.0714 pd=0.76 as=0.0609 ps=0.71 w=0.42 l=0.15
X83 VGND.t36 passgatesCtrl_0._00_ a_n2883_n1648# VGND.t8 sky130_fd_pr__nfet_01v8 ad=0.0754 pd=0.81 as=0.1352 ps=1.56 w=0.52 l=0.15
X84 a_n1637_n1429# passgatesCtrl_0.net6 VPWR.t148 VPWR.t147 sky130_fd_pr__pfet_01v8_hvt ad=0.2054 pd=2.1 as=0.11455 ps=1.08 w=0.79 l=0.15
X85 VPWR.t76 a_n801_n4216# a_n988_n4394# VPWR.t75 sky130_fd_pr__pfet_01v8_hvt ad=0.14075 pd=1.325 as=0.26 ps=2.52 w=1 l=0.15
X86 VGND.t103 a_n1637_n1429# passgatex4_0.GN4 VGND.t8 sky130_fd_pr__nfet_01v8 ad=0.0754 pd=0.81 as=0.1352 ps=1.56 w=0.52 l=0.15
X87 VPWR.t45 VGND.t187 VPWR.t44 VPWR.t28 sky130_fd_pr__pfet_01v8_hvt ad=0.2262 pd=2.26 as=0 ps=0 w=0.87 l=0.59
X88 VPWR.t119 a_n2185_n2218# passgatesCtrl_0._00_ VPWR.t118 sky130_fd_pr__pfet_01v8_hvt ad=0.14825 pd=1.34 as=0.27 ps=2.54 w=1 l=0.15
X89 Z2.t3 passgatex4_0.GN2 A2.t2 VGND.t108 sky130_fd_pr__nfet_01v8_lvt ad=2.32 pd=16.58 as=2.32 ps=16.58 w=8 l=0.35
X90 VGND.t149 a_n1084_n4216# a_n1135_n4368# VGND.t148 sky130_fd_pr__nfet_01v8 ad=0.097 pd=0.975 as=0.169 ps=1.82 w=0.65 l=0.15
X91 passgatesCtrl_0.net7 a_n675_n1648# VGND.t102 VGND.t8 sky130_fd_pr__nfet_01v8 ad=0.1352 pd=1.56 as=0.0754 ps=0.81 w=0.52 l=0.15
X92 VPWR.t123 passgatesCtrl_0.net1.t8 passgatesCtrl_0.net10.t1 VPWR.t122 sky130_fd_pr__pfet_01v8_hvt ad=0.26 pd=2.52 as=0.135 ps=1.27 w=1 l=0.15
X93 VPWR.t157 a_n1084_n4216# a_n1135_n4368# VPWR.t156 sky130_fd_pr__pfet_01v8_hvt ad=0.14075 pd=1.325 as=0.26 ps=2.52 w=1 l=0.15
X94 VGND.t101 a_n2185_n2218# passgatesCtrl_0._00_ VGND.t100 sky130_fd_pr__nfet_01v8 ad=0.101875 pd=0.99 as=0.1755 ps=1.84 w=0.65 l=0.15
X95 VGND.t93 passgatesCtrl_0.net2.t5 a_n539_n3518# VGND.t92 sky130_fd_pr__nfet_01v8 ad=0.1092 pd=1.36 as=0.1092 ps=1.36 w=0.42 l=0.15
X96 a_n1173_n2218# passgatesCtrl_0.net2.t6 VGND.t91 VGND.t90 sky130_fd_pr__nfet_01v8 ad=0.0567 pd=0.69 as=0.101875 ps=0.99 w=0.42 l=0.15
X97 VGND.t89 passgatesCtrl_0.net2.t7 a_n2161_n4368# VGND.t88 sky130_fd_pr__nfet_01v8 ad=0.097 pd=0.975 as=0.1092 ps=1.36 w=0.42 l=0.15
X98 VGND.t14 VPWR.t188 VGND.t13 VGND.t12 sky130_fd_pr__nfet_01v8 ad=0.143 pd=1.62 as=0 ps=0 w=0.55 l=0.59
X99 passgatesCtrl_0.net6 a_n2975_n2192# VPWR.t78 VPWR.t77 sky130_fd_pr__pfet_01v8_hvt ad=0.2054 pd=2.1 as=0.11455 ps=1.08 w=0.79 l=0.15
X100 VPWR.t43 VGND.t188 VPWR.t42 VPWR.t41 sky130_fd_pr__pfet_01v8_hvt ad=0.2262 pd=2.26 as=0 ps=0 w=0.87 l=0.59
X101 VGND.t17 VPWR.t189 VGND.t16 VGND.t15 sky130_fd_pr__nfet_01v8 ad=0.143 pd=1.62 as=0 ps=0 w=0.55 l=0.59
X102 VPWR.t82 a_n2639_n2040# passgatesCtrl_0._05_ VPWR.t81 sky130_fd_pr__pfet_01v8_hvt ad=0.16655 pd=1.39 as=0.475 ps=2.95 w=1 l=0.15
X103 VGND.t61 VPWR.t190 VGND.t60 VGND.t12 sky130_fd_pr__nfet_01v8 ad=0.143 pd=1.62 as=0 ps=0 w=0.55 l=0.59
X104 VGND.t64 VPWR.t191 VGND.t63 VGND.t62 sky130_fd_pr__nfet_01v8 ad=0.143 pd=1.62 as=0 ps=0 w=0.55 l=1.05
X105 a_n2465_n2164# passgatesCtrl_0.net2.t8 VGND.t87 VGND.t86 sky130_fd_pr__nfet_01v8 ad=0.0567 pd=0.69 as=0.1118 ps=1.04 w=0.42 l=0.15
X106 VGND.t49 a_n2639_n2040# passgatesCtrl_0._05_ VGND.t48 sky130_fd_pr__nfet_01v8 ad=0.1118 pd=1.04 as=0.182 ps=1.86 w=0.65 l=0.15
X107 VPWR.t158 passgatesCtrl_0.net4 a_n951_n2736# VPWR.t99 sky130_fd_pr__pfet_01v8_hvt ad=0.11455 pd=1.08 as=0.2054 ps=2.1 w=0.79 l=0.15
X108 a_n2015_n2040# passgatesCtrl_0.net2.t9 VGND.t85 VGND.t84 sky130_fd_pr__nfet_01v8 ad=0.1092 pd=1.36 as=0.1575 ps=1.17 w=0.42 l=0.15
X109 VPWR.t40 VGND.t189 VPWR.t39 VPWR.t13 sky130_fd_pr__pfet_01v8_hvt ad=0.2262 pd=2.26 as=0 ps=0 w=0.87 l=0.59
X110 VPWR.t68 a_n1913_n1429# passgatex4_0.GP4 VPWR.t67 sky130_fd_pr__pfet_01v8_hvt ad=0.11455 pd=1.08 as=0.2054 ps=2.1 w=0.79 l=0.15
X111 VPWR.t6 passgatesCtrl_0._01_ a_n1503_n2192# VPWR.t5 sky130_fd_pr__pfet_01v8_hvt ad=0.11455 pd=1.08 as=0.2054 ps=2.1 w=0.79 l=0.15
X112 VPWR.t38 VGND.t190 VPWR.t37 VPWR.t36 sky130_fd_pr__pfet_01v8_hvt ad=0.2262 pd=2.26 as=0 ps=0 w=0.87 l=0.59
X113 VGND.t83 passgatesCtrl_0.net2.t10 passgatesCtrl_0.net3 VGND.t82 sky130_fd_pr__nfet_01v8 ad=0.169 pd=1.82 as=0.08775 ps=0.92 w=0.65 l=0.15
X114 A1.t3 passgatex4_0.GP1 Z1.t2 VPWR.t171 sky130_fd_pr__pfet_01v8_lvt ad=2.9 pd=20.58 as=2.9 ps=20.58 w=10 l=0.35
X115 VGND.t128 a_n482_n4216# passgatesCtrl_0.net1.t0 VGND.t127 sky130_fd_pr__nfet_01v8 ad=0.097 pd=0.975 as=0.169 ps=1.82 w=0.65 l=0.15
X116 VPWR.t136 select1.t1 a_n2480_n4368# VPWR.t135 sky130_fd_pr__pfet_01v8_hvt ad=0.14075 pd=1.325 as=0.1092 ps=1.36 w=0.42 l=0.15
X117 a_n2185_n2218# passgatesCtrl_0.net1.t9 VGND.t126 VGND.t125 sky130_fd_pr__nfet_01v8 ad=0.0567 pd=0.69 as=0.101875 ps=0.99 w=0.42 l=0.15
X118 a_n1701_n4368# a_n1878_n4368# VGND.t162 VGND.t161 sky130_fd_pr__nfet_01v8 ad=0.169 pd=1.82 as=0.097 ps=0.975 w=0.65 l=0.15
X119 VPWR.t142 a_n482_n4216# passgatesCtrl_0.net1.t1 VPWR.t141 sky130_fd_pr__pfet_01v8_hvt ad=0.14075 pd=1.325 as=0.26 ps=2.52 w=1 l=0.15
X120 a_n1085_n1429# passgatesCtrl_0.net8 VGND.t50 VGND.t8 sky130_fd_pr__nfet_01v8 ad=0.1352 pd=1.56 as=0.0754 ps=0.81 w=0.52 l=0.15
X121 VPWR.t35 VGND.t191 VPWR.t34 VPWR.t31 sky130_fd_pr__pfet_01v8_hvt ad=0.2262 pd=2.26 as=0 ps=0 w=0.87 l=4.73
X122 VGND.t44 VPWR.t192 VGND.t43 VGND.t42 sky130_fd_pr__nfet_01v8 ad=0.143 pd=1.62 as=0 ps=0 w=0.55 l=1.97
X123 Z4.t1 passgatex4_0.GN4 A4.t0 VGND.t27 sky130_fd_pr__nfet_01v8_lvt ad=2.32 pd=16.58 as=2.32 ps=16.58 w=8 l=0.35
X124 a_n1701_n4368# a_n1878_n4368# VPWR.t169 VPWR.t168 sky130_fd_pr__pfet_01v8_hvt ad=0.26 pd=2.52 as=0.14075 ps=1.325 w=1 l=0.15
X125 passgatesCtrl_0.net10.t0 passgatesCtrl_0.net2.t11 VPWR.t115 VPWR.t114 sky130_fd_pr__pfet_01v8_hvt ad=0.135 pd=1.27 as=0.26 ps=2.52 w=1 l=0.15
X126 a_n2639_n2040# passgatesCtrl_0.net2.t12 VPWR.t113 VPWR.t112 sky130_fd_pr__pfet_01v8_hvt ad=0.0567 pd=0.69 as=0.16655 ps=1.39 w=0.42 l=0.15
X127 VPWR.t102 passgatesCtrl_0.net1.t10 a_n1003_n2040# VPWR.t101 sky130_fd_pr__pfet_01v8_hvt ad=0.1092 pd=1.36 as=0.1176 ps=1.4 w=0.42 l=0.15
X128 VGND.t3 passgatesCtrl_0._03_ a_n1963_n3280# VGND.t2 sky130_fd_pr__nfet_01v8 ad=0.0754 pd=0.81 as=0.1352 ps=1.56 w=0.52 l=0.15
X129 passgatesCtrl_0.net5 a_n1963_n3280# VPWR.t1 VPWR.t0 sky130_fd_pr__pfet_01v8_hvt ad=0.2054 pd=2.1 as=0.11455 ps=1.08 w=0.79 l=0.15
X130 a_n1084_n4216# a_n988_n4394# VPWR.t132 VPWR.t131 sky130_fd_pr__pfet_01v8_hvt ad=0.1092 pd=1.36 as=0.14075 ps=1.325 w=0.42 l=0.15
X131 a_n539_n3518# passgatesCtrl_0.net2.t13 VPWR.t111 VPWR.t110 sky130_fd_pr__pfet_01v8_hvt ad=0.1092 pd=1.36 as=0.0714 ps=0.76 w=0.42 l=0.15
X132 passgatesCtrl_0.net9 a_n2883_n1648# VGND.t129 VGND.t8 sky130_fd_pr__nfet_01v8 ad=0.1352 pd=1.56 as=0.0754 ps=0.81 w=0.52 l=0.15
X133 a_n1637_n1429# passgatesCtrl_0.net6 VGND.t132 VGND.t8 sky130_fd_pr__nfet_01v8 ad=0.1352 pd=1.56 as=0.0754 ps=0.81 w=0.52 l=0.15
X134 a_n801_n4216# passgatesCtrl_0.net1.t11 VPWR.t174 VPWR.t173 sky130_fd_pr__pfet_01v8_hvt ad=0.1092 pd=1.36 as=0.14075 ps=1.325 w=0.42 l=0.15
X135 a_n2639_n2040# passgatesCtrl_0.net1.t12 a_n2465_n2164# VGND.t144 sky130_fd_pr__nfet_01v8 ad=0.1176 pd=1.4 as=0.0567 ps=0.69 w=0.42 l=0.15
X136 A3.t3 passgatex4_0.GP3 Z3.t2 VPWR.t172 sky130_fd_pr__pfet_01v8_lvt ad=2.9 pd=20.58 as=2.9 ps=20.58 w=10 l=0.35
X137 VPWR.t12 a_n597_n2040# passgatesCtrl_0._02_ VPWR.t11 sky130_fd_pr__pfet_01v8_hvt ad=0.14575 pd=1.335 as=0.34 ps=2.68 w=1 l=0.15
X138 VPWR.t33 VGND.t192 VPWR.t32 VPWR.t31 sky130_fd_pr__pfet_01v8_hvt ad=0.2262 pd=2.26 as=0 ps=0 w=0.87 l=0.59
X139 VGND.t47 VPWR.t193 VGND.t46 VGND.t45 sky130_fd_pr__nfet_01v8 ad=0.143 pd=1.62 as=0 ps=0 w=0.55 l=0.59
X140 a_n995_n3605# passgatesCtrl_0._04_ VPWR.t96 VPWR.t95 sky130_fd_pr__pfet_01v8_hvt ad=0.2054 pd=2.1 as=0.11455 ps=1.08 w=0.79 l=0.15
X141 a_n1507_n3280# passgatesCtrl_0.net2.t14 VGND.t81 VGND.t80 sky130_fd_pr__nfet_01v8 ad=0.0504 pd=0.66 as=0.1013 ps=0.99 w=0.42 l=0.15
X142 a_n1635_n3306# a_n1459_n3306# a_n1507_n3280# VGND.t176 sky130_fd_pr__nfet_01v8 ad=0.1092 pd=1.36 as=0.0504 ps=0.66 w=0.42 l=0.15
X143 VGND.t11 a_n597_n2040# passgatesCtrl_0._02_ VGND.t10 sky130_fd_pr__nfet_01v8 ad=0.10025 pd=0.985 as=0.169 ps=1.82 w=0.65 l=0.15
X144 VGND.t32 VPWR.t194 VGND.t31 VGND.t30 sky130_fd_pr__nfet_01v8 ad=0.143 pd=1.62 as=0 ps=0 w=0.55 l=0.59
X145 A2.t0 passgatex4_0.GP2 Z2.t1 VPWR.t85 sky130_fd_pr__pfet_01v8_lvt ad=2.9 pd=20.58 as=2.9 ps=20.58 w=10 l=0.35
X146 VPWR.t30 VGND.t193 VPWR.t29 VPWR.t28 sky130_fd_pr__pfet_01v8_hvt ad=0.2262 pd=2.26 as=0 ps=0 w=0.87 l=0.59
X147 VGND.t151 passgatesCtrl_0.net4 a_n951_n2736# VGND.t150 sky130_fd_pr__nfet_01v8 ad=0.0754 pd=0.81 as=0.1352 ps=1.56 w=0.52 l=0.15
X148 VGND.t117 a_n715_n3850# passgatesCtrl_0._04_ VGND.t116 sky130_fd_pr__nfet_01v8 ad=0.1013 pd=0.99 as=0.169 ps=1.82 w=0.65 l=0.15
X149 VPWR.t80 a_n1361_n1429# passgatex4_0.GN3 VPWR.t79 sky130_fd_pr__pfet_01v8_hvt ad=0.11455 pd=1.08 as=0.2054 ps=2.1 w=0.79 l=0.15
X150 a_n1361_n1429# passgatesCtrl_0.net5 VPWR.t10 VPWR.t9 sky130_fd_pr__pfet_01v8_hvt ad=0.2054 pd=2.1 as=0.11455 ps=1.08 w=0.79 l=0.15
X151 VGND.t164 a_n2015_n2040# a_n2185_n2218# VGND.t163 sky130_fd_pr__nfet_01v8 ad=0.1575 pd=1.17 as=0.0567 ps=0.69 w=0.42 l=0.15
X152 VGND.t35 VPWR.t195 VGND.t34 VGND.t33 sky130_fd_pr__nfet_01v8 ad=0.143 pd=1.62 as=0 ps=0 w=0.55 l=0.59
X153 VPWR.t27 VGND.t194 VPWR.t26 VPWR.t25 sky130_fd_pr__pfet_01v8_hvt ad=0.2262 pd=2.26 as=0 ps=0 w=0.87 l=1.05
X154 VGND.t71 VPWR.t196 VGND.t70 VGND.t69 sky130_fd_pr__nfet_01v8 ad=0.143 pd=1.62 as=0 ps=0 w=0.55 l=0.59
X155 VPWR.t90 passgatesCtrl_0.net1.t13 a_n2639_n2040# VPWR.t89 sky130_fd_pr__pfet_01v8_hvt ad=0.1176 pd=1.4 as=0.0567 ps=0.69 w=0.42 l=0.15
X156 a_n1045_n1942# passgatesCtrl_0.net2.t15 VPWR.t109 VPWR.t108 sky130_fd_pr__pfet_01v8_hvt ad=0.0441 pd=0.63 as=0.14825 ps=1.34 w=0.42 l=0.15
X157 VPWR.t92 a_n2189_n1429# passgatex4_0.GP3 VPWR.t91 sky130_fd_pr__pfet_01v8_hvt ad=0.11455 pd=1.08 as=0.2054 ps=2.1 w=0.79 l=0.15
X158 VGND.t124 passgatesCtrl_0._05_ a_n2975_n2192# VGND.t123 sky130_fd_pr__nfet_01v8 ad=0.0754 pd=0.81 as=0.1352 ps=1.56 w=0.52 l=0.15
X159 a_n482_n4216# select0.t1 VPWR.t162 VPWR.t161 sky130_fd_pr__pfet_01v8_hvt ad=0.1092 pd=1.36 as=0.14075 ps=1.325 w=0.42 l=0.15
X160 passgatesCtrl_0.net3 passgatesCtrl_0.net1.t14 VGND.t59 VGND.t58 sky130_fd_pr__nfet_01v8 ad=0.08775 pd=0.92 as=0.169 ps=1.82 w=0.65 l=0.15
X161 A1.t2 passgatex4_0.GP1 Z1.t3 VPWR.t171 sky130_fd_pr__pfet_01v8_lvt ad=2.9 pd=20.58 as=2.9 ps=20.58 w=10 l=0.35
X162 VPWR.t24 VGND.t195 VPWR.t23 VPWR.t22 sky130_fd_pr__pfet_01v8_hvt ad=0.2262 pd=2.26 as=0 ps=0 w=0.87 l=4.73
X163 VGND.t74 VPWR.t197 VGND.t73 VGND.t72 sky130_fd_pr__nfet_01v8 ad=0.143 pd=1.62 as=0 ps=0 w=0.55 l=1.05
X164 VGND.t147 passgatesCtrl_0.net1.t15 a_n1459_n3306# VGND.t146 sky130_fd_pr__nfet_01v8 ad=0.1092 pd=1.36 as=0.1092 ps=1.36 w=0.42 l=0.15
X165 a_n1984_n4368# a_n2161_n4368# VGND.t110 VGND.t109 sky130_fd_pr__nfet_01v8 ad=0.169 pd=1.82 as=0.097 ps=0.975 w=0.65 l=0.15
X166 VGND.t18 a_n1913_n1429# passgatex4_0.GP4 VGND.t8 sky130_fd_pr__nfet_01v8 ad=0.0754 pd=0.81 as=0.1352 ps=1.56 w=0.52 l=0.15
X167 a_n1913_n1429# passgatesCtrl_0.net10.t4 VPWR.t72 VPWR.t71 sky130_fd_pr__pfet_01v8_hvt ad=0.2054 pd=2.1 as=0.11455 ps=1.08 w=0.79 l=0.15
X168 a_n1984_n4368# a_n2161_n4368# VPWR.t130 VPWR.t129 sky130_fd_pr__pfet_01v8_hvt ad=0.26 pd=2.52 as=0.14075 ps=1.325 w=1 l=0.15
X169 passgatesCtrl_0.net8 a_n1503_n2192# VPWR.t70 VPWR.t69 sky130_fd_pr__pfet_01v8_hvt ad=0.2054 pd=2.1 as=0.11455 ps=1.08 w=0.79 l=0.15
X170 a_n597_n2040# passgatesCtrl_0.net2.t16 a_n434_n1942# VPWR.t107 sky130_fd_pr__pfet_01v8_hvt ad=0.1092 pd=1.36 as=0.0441 ps=0.63 w=0.42 l=0.15
X171 VPWR.t106 passgatesCtrl_0.net2.t17 a_n2015_n2040# VPWR.t71 sky130_fd_pr__pfet_01v8_hvt ad=0.1092 pd=1.36 as=0.1176 ps=1.4 w=0.42 l=0.15
X172 VPWR.t94 a_n1984_n4368# a_n1878_n4368# VPWR.t93 sky130_fd_pr__pfet_01v8_hvt ad=0.14075 pd=1.325 as=0.1092 ps=1.36 w=0.42 l=0.15
X173 a_n1635_n3306# passgatesCtrl_0.net2.t18 VPWR.t105 VPWR.t104 sky130_fd_pr__pfet_01v8_hvt ad=0.0609 pd=0.71 as=0.2279 ps=1.74 w=0.42 l=0.15
X174 passgatex4_0.GN2 a_n951_n2736# VPWR.t100 VPWR.t99 sky130_fd_pr__pfet_01v8_hvt ad=0.2054 pd=2.1 as=0.11455 ps=1.08 w=0.79 l=0.15
X175 VPWR.t21 VGND.t196 VPWR.t20 VPWR.t19 sky130_fd_pr__pfet_01v8_hvt ad=0.2262 pd=2.26 as=0 ps=0 w=0.87 l=1.05
X176 passgatesCtrl_0.net5 a_n1963_n3280# VGND.t1 VGND.t0 sky130_fd_pr__nfet_01v8 ad=0.1352 pd=1.56 as=0.0754 ps=0.81 w=0.52 l=0.15
X177 a_n434_n1942# passgatesCtrl_0.net1.t16 VPWR.t167 VPWR.t166 sky130_fd_pr__pfet_01v8_hvt ad=0.0441 pd=0.63 as=0.14575 ps=1.335 w=0.42 l=0.15
X178 passgatex4_0.GP1 a_n491_n3280# VPWR.t154 VPWR.t0 sky130_fd_pr__pfet_01v8_hvt ad=0.2054 pd=2.1 as=0.11455 ps=1.08 w=0.79 l=0.15
X179 A4.t2 passgatex4_0.GP4 Z4.t3 VPWR.t163 sky130_fd_pr__pfet_01v8_lvt ad=2.9 pd=20.58 as=2.9 ps=20.58 w=10 l=0.35
X180 VPWR.t126 passgatesCtrl_0.net7 a_n491_n3280# VPWR.t0 sky130_fd_pr__pfet_01v8_hvt ad=0.11455 pd=1.08 as=0.2054 ps=2.1 w=0.79 l=0.15
X181 a_n2057_n1942# passgatesCtrl_0.net1.t17 VPWR.t88 VPWR.t87 sky130_fd_pr__pfet_01v8_hvt ad=0.0441 pd=0.63 as=0.14825 ps=1.34 w=0.42 l=0.15
X182 Z1.t0 passgatex4_0.GN1 A1.t1 VGND.t166 sky130_fd_pr__nfet_01v8_lvt ad=2.32 pd=16.58 as=2.32 ps=16.58 w=8 l=0.35
X183 a_n995_n3605# passgatesCtrl_0._04_ VGND.t57 VGND.t56 sky130_fd_pr__nfet_01v8 ad=0.1352 pd=1.56 as=0.0754 ps=0.81 w=0.52 l=0.15
X184 VPWR.t18 VGND.t197 VPWR.t17 VPWR.t16 sky130_fd_pr__pfet_01v8_hvt ad=0.2262 pd=2.26 as=0 ps=0 w=0.87 l=0.59
X185 a_n597_n2040# passgatesCtrl_0.net1.t18 VGND.t170 VGND.t169 sky130_fd_pr__nfet_01v8 ad=0.0567 pd=0.69 as=0.10025 ps=0.985 w=0.42 l=0.15
X186 passgatesCtrl_0.net3 passgatesCtrl_0.net2.t19 a_n485_n2736# VPWR.t103 sky130_fd_pr__pfet_01v8_hvt ad=0.26 pd=2.52 as=0.105 ps=1.21 w=1 l=0.15
X187 VPWR.t151 passgatesCtrl_0.net3 a_n1227_n2736# VPWR.t99 sky130_fd_pr__pfet_01v8_hvt ad=0.11455 pd=1.08 as=0.2054 ps=2.1 w=0.79 l=0.15
X188 Z1.t1 passgatex4_0.GN1 A1.t0 VGND.t165 sky130_fd_pr__nfet_01v8_lvt ad=2.32 pd=16.58 as=2.32 ps=16.58 w=8 l=0.35
X189 VPWR.t165 passgatesCtrl_0._02_ a_n675_n1648# VPWR.t164 sky130_fd_pr__pfet_01v8_hvt ad=0.11455 pd=1.08 as=0.2054 ps=2.1 w=0.79 l=0.15
X190 VPWR.t15 VGND.t198 VPWR.t14 VPWR.t13 sky130_fd_pr__pfet_01v8_hvt ad=0.2262 pd=2.26 as=0 ps=0 w=0.87 l=2.89
X191 a_n485_n2736# passgatesCtrl_0.net1.t19 VPWR.t160 VPWR.t103 sky130_fd_pr__pfet_01v8_hvt ad=0.105 pd=1.21 as=0.26 ps=2.52 w=1 l=0.15
R0 passgatesCtrl_0.net2.n5 passgatesCtrl_0.net2.t15 562.236
R1 passgatesCtrl_0.net2.t15 passgatesCtrl_0.net2.t6 392.027
R2 passgatesCtrl_0.net2.n21 passgatesCtrl_0.net2.t13 327.99
R3 passgatesCtrl_0.net2.n2 passgatesCtrl_0.net2.t3 323.55
R4 passgatesCtrl_0.net2.n1 passgatesCtrl_0.net2.t0 319.171
R5 passgatesCtrl_0.net2.n18 passgatesCtrl_0.net2.t14 293.969
R6 passgatesCtrl_0.net2.n13 passgatesCtrl_0.net2.t12 261.887
R7 passgatesCtrl_0.net2.n6 passgatesCtrl_0.net2.t19 230.363
R8 passgatesCtrl_0.net2.n15 passgatesCtrl_0.net2.t11 229.369
R9 passgatesCtrl_0.net2 passgatesCtrl_0.net2.t1 209.923
R10 passgatesCtrl_0.net2.n21 passgatesCtrl_0.net2.t5 199.457
R11 passgatesCtrl_0.net2.n2 passgatesCtrl_0.net2.t7 195.017
R12 passgatesCtrl_0.net2.n8 passgatesCtrl_0.net2.t2 192.639
R13 passgatesCtrl_0.net2.n11 passgatesCtrl_0.net2.t9 185.376
R14 passgatesCtrl_0.net2.n6 passgatesCtrl_0.net2.t10 158.064
R15 passgatesCtrl_0.net2.n15 passgatesCtrl_0.net2.t4 157.07
R16 passgatesCtrl_0.net2.n13 passgatesCtrl_0.net2.t8 155.847
R17 passgatesCtrl_0.net2 passgatesCtrl_0.net2.n8 154.286
R18 passgatesCtrl_0.net2 passgatesCtrl_0.net2.n18 154.065
R19 passgatesCtrl_0.net2.n16 passgatesCtrl_0.net2.n15 153.66
R20 passgatesCtrl_0.net2 passgatesCtrl_0.net2.n2 153.409
R21 passgatesCtrl_0.net2.n7 passgatesCtrl_0.net2.n6 153.097
R22 passgatesCtrl_0.net2.n22 passgatesCtrl_0.net2.n21 152
R23 passgatesCtrl_0.net2.n14 passgatesCtrl_0.net2.n13 152
R24 passgatesCtrl_0.net2.n12 passgatesCtrl_0.net2.n11 152
R25 passgatesCtrl_0.net2.n18 passgatesCtrl_0.net2.t18 138.338
R26 passgatesCtrl_0.net2.n11 passgatesCtrl_0.net2.t17 137.177
R27 passgatesCtrl_0.net2.n8 passgatesCtrl_0.net2.t16 134.799
R28 passgatesCtrl_0.net2.n10 passgatesCtrl_0.net2.n5 26.6879
R29 passgatesCtrl_0.net2.n23 passgatesCtrl_0.net2 24.7034
R30 passgatesCtrl_0.net2.n17 passgatesCtrl_0.net2.n16 21.1865
R31 passgatesCtrl_0.net2.n9 passgatesCtrl_0.net2.n7 21.1676
R32 passgatesCtrl_0.net2.n24 passgatesCtrl_0.net2.n23 17.5163
R33 passgatesCtrl_0.net2.n4 passgatesCtrl_0.net2 16.0005
R34 passgatesCtrl_0.net2.n19 passgatesCtrl_0.net2 15.4844
R35 passgatesCtrl_0.net2.n9 passgatesCtrl_0.net2 11.2434
R36 passgatesCtrl_0.net2.n0 passgatesCtrl_0.net2.n12 10.8365
R37 passgatesCtrl_0.net2.n17 passgatesCtrl_0.net2.n14 10.1066
R38 passgatesCtrl_0.net2 passgatesCtrl_0.net2.n19 10.0713
R39 passgatesCtrl_0.net2 passgatesCtrl_0.net2.n22 9.6005
R40 passgatesCtrl_0.net2.n0 passgatesCtrl_0.net2.n10 9.15538
R41 passgatesCtrl_0.net2.n5 passgatesCtrl_0.net2 8.92171
R42 passgatesCtrl_0.net2.n24 passgatesCtrl_0.net2.n4 8.88939
R43 passgatesCtrl_0.net2.n20 passgatesCtrl_0.net2.n0 8.61863
R44 passgatesCtrl_0.net2 passgatesCtrl_0.net2.n24 7.82272
R45 passgatesCtrl_0.net2 passgatesCtrl_0.net2.n1 7.73474
R46 passgatesCtrl_0.net2.n10 passgatesCtrl_0.net2.n9 7.03724
R47 passgatesCtrl_0.net2 passgatesCtrl_0.net2.n3 6.34564
R48 passgatesCtrl_0.net2.n4 passgatesCtrl_0.net2 6.0165
R49 passgatesCtrl_0.net2.n4 passgatesCtrl_0.net2 5.7605
R50 passgatesCtrl_0.net2.n20 passgatesCtrl_0.net2 5.25599
R51 passgatesCtrl_0.net2.n22 passgatesCtrl_0.net2 4.90717
R52 passgatesCtrl_0.net2.n16 passgatesCtrl_0.net2 4.26717
R53 passgatesCtrl_0.net2.n14 passgatesCtrl_0.net2 3.8405
R54 passgatesCtrl_0.net2.n19 passgatesCtrl_0.net2 3.51018
R55 passgatesCtrl_0.net2.n7 passgatesCtrl_0.net2 3.10907
R56 passgatesCtrl_0.net2.n12 passgatesCtrl_0.net2 3.0725
R57 passgatesCtrl_0.net2.n0 passgatesCtrl_0.net2.n17 2.62704
R58 passgatesCtrl_0.net2.n1 passgatesCtrl_0.net2 2.48634
R59 passgatesCtrl_0.net2.n23 passgatesCtrl_0.net2.n20 2.2972
R60 passgatesCtrl_0.net2.n3 passgatesCtrl_0.net2 2.19479
R61 passgatesCtrl_0.net2.n3 passgatesCtrl_0.net2 1.80756
R62 VGND.t165 VGND.n7 13018.9
R63 VGND.n115 VGND.n114 12462.1
R64 VGND.n108 VGND.n92 12047.7
R65 VGND.n135 VGND.n94 11744.7
R66 VGND.n135 VGND.n95 11744.7
R67 VGND.n94 VGND.n93 11744.7
R68 VGND.n95 VGND.n93 11744.7
R69 VGND.n121 VGND.n100 11744.7
R70 VGND.n121 VGND.n101 11744.7
R71 VGND.n120 VGND.n100 11744.7
R72 VGND.n120 VGND.n101 11744.7
R73 VGND.n113 VGND.n102 11744.7
R74 VGND.n109 VGND.n102 11744.7
R75 VGND.n113 VGND.n103 11744.7
R76 VGND.n109 VGND.n103 11744.7
R77 VGND.n562 VGND.n4 11744.7
R78 VGND.n562 VGND.n5 11744.7
R79 VGND.n560 VGND.n5 11744.7
R80 VGND.n560 VGND.n4 11744.7
R81 VGND.n387 VGND 10843
R82 VGND.n387 VGND.n386 10123.6
R83 VGND.n386 VGND.n385 10123.6
R84 VGND.n137 VGND.n136 3869.02
R85 VGND.n136 VGND.n91 3771.63
R86 VGND.n116 VGND.n91 3735.78
R87 VGND.n561 VGND.n6 3570.22
R88 VGND.n558 VGND.t165 2593.05
R89 VGND.t165 VGND 2390.62
R90 VGND.n561 VGND.n558 2369.23
R91 VGND.t69 VGND.t138 2326.44
R92 VGND.n388 VGND.t19 1938.7
R93 VGND VGND.t12 1694.25
R94 VGND VGND.t15 1601.53
R95 VGND.n386 VGND 1601.53
R96 VGND VGND.n387 1601.53
R97 VGND.t176 VGND.t146 1584.67
R98 VGND.t0 VGND.t77 1567.82
R99 VGND.t163 VGND.t84 1517.24
R100 VGND VGND.t30 1407.66
R101 VGND.t166 VGND.n6 1392.06
R102 VGND VGND.t100 1340.23
R103 VGND VGND.t4 1230.65
R104 VGND.t120 VGND.t158 1219.28
R105 VGND.n384 VGND.n383 1194.5
R106 VGND.n254 VGND.t48 1194.5
R107 VGND.n557 VGND.n556 1194.5
R108 VGND.n389 VGND.n388 1194.5
R109 VGND VGND.t62 1019.92
R110 VGND.t19 VGND 1019.92
R111 VGND VGND.t10 977.779
R112 VGND.t48 VGND 918.774
R113 VGND.t30 VGND 918.774
R114 VGND.n388 VGND 918.774
R115 VGND.t138 VGND 918.774
R116 VGND.t48 VGND.t86 910.346
R117 VGND.t22 VGND 893.633
R118 VGND VGND.n6 851.341
R119 VGND.n558 VGND 851.341
R120 VGND.t127 VGND.t167 848.193