* NGSPICE file created from mux8onehot_parax.ext - technology: sky130A

.subckt mux8onehot_parax select1 select2 A1 A3 A2 A4 Z A8 select0 A7 A6 VPWR A5 VGND
X0 a_5645_5909# a_5645_6085# a_5671_6037# VGND.t59 sky130_fd_pr__nfet_01v8 ad=0.1092 pd=1.36 as=0.0504 ps=0.66 w=0.42 l=0.15
X1 VGND.t6 select1.t0 a_5645_6085# VGND.t5 sky130_fd_pr__nfet_01v8 ad=0.1092 pd=1.36 as=0.1092 ps=1.36 w=0.42 l=0.15
X2 x5.A select2.t0 Z.t5 VPWR.t31 sky130_fd_pr__pfet_01v8_lvt ad=2.9 pd=20.58 as=2.9 ps=20.58 w=10 l=0.35
X3 x3.Z3 x1.gno0.t2 A5.t3 VGND.t15 sky130_fd_pr__nfet_01v8_lvt ad=2.32 pd=16.58 as=2.32 ps=16.58 w=8 l=0.35
X4 VGND.t50 a_5645_6461# x1.gno2 VGND.t49 sky130_fd_pr__nfet_01v8 ad=0.1013 pd=0.99 as=0.169 ps=1.82 w=0.65 l=0.15
X5 x1.gpo3.t3 x1.gno3.t2 VGND.t13 VGND.t12 sky130_fd_pr__nfet_01v8 ad=0.08775 pd=0.92 as=0.169 ps=1.82 w=0.65 l=0.15
X6 x1.nSEL2 select2.t1 VPWR.t30 VPWR.t29 sky130_fd_pr__pfet_01v8_hvt ad=0.135 pd=1.27 as=0.26 ps=2.52 w=1 l=0.15
X7 VGND.t38 a_5645_5909# x1.gno1 VGND.t37 sky130_fd_pr__nfet_01v8 ad=0.1013 pd=0.99 as=0.169 ps=1.82 w=0.65 l=0.15
X8 VPWR.t59 select0.t0 x1.nSEL0 VPWR.t58 sky130_fd_pr__pfet_01v8_hvt ad=0.26 pd=2.52 as=0.135 ps=1.27 w=1 l=0.15
X9 x5.A select2.t2 Z.t4 VPWR.t28 sky130_fd_pr__pfet_01v8_lvt ad=2.9 pd=20.58 as=2.9 ps=20.58 w=10 l=0.35
X10 A1.t1 x1.gpo0.t4 x5.A VPWR.t60 sky130_fd_pr__pfet_01v8_lvt ad=2.9 pd=20.58 as=2.9 ps=20.58 w=10 l=0.35
X11 x5.A x1.gno1 A2.t2 VGND.t39 sky130_fd_pr__nfet_01v8_lvt ad=2.32 pd=16.58 as=2.32 ps=16.58 w=8 l=0.35
X12 VPWR.t74 VGND.t76 VPWR.t73 VPWR.t72 sky130_fd_pr__pfet_01v8_hvt ad=0.2262 pd=2.26 as=0 ps=0 w=0.87 l=1.05
X13 x3.Z3 x1.nSEL2 Z.t3 VPWR.t1 sky130_fd_pr__pfet_01v8_lvt ad=2.9 pd=20.58 as=2.9 ps=20.58 w=10 l=0.35
X14 x1.nSEL0 select0.t1 VPWR.t53 VPWR.t52 sky130_fd_pr__pfet_01v8_hvt ad=0.135 pd=1.27 as=0.26 ps=2.52 w=1 l=0.15
X15 x5.A x1.gno3.t3 A4.t1 VGND.t22 sky130_fd_pr__nfet_01v8_lvt ad=2.32 pd=16.58 as=2.32 ps=16.58 w=8 l=0.35
X16 VGND.t67 VPWR.t79 VGND.t66 VGND.t65 sky130_fd_pr__nfet_01v8 ad=0.143 pd=1.62 as=0 ps=0 w=0.55 l=1.05
X17 a_5671_6037# select0.t2 VGND.t36 VGND.t35 sky130_fd_pr__nfet_01v8 ad=0.0504 pd=0.66 as=0.1013 ps=0.99 w=0.42 l=0.15
X18 A7.t3 x1.gpo2 x3.Z3 VPWR.t77 sky130_fd_pr__pfet_01v8_lvt ad=2.9 pd=20.58 as=2.9 ps=20.58 w=10 l=0.35
X19 x3.Z3 x1.nSEL2 Z.t2 VPWR.t0 sky130_fd_pr__pfet_01v8_lvt ad=2.9 pd=20.58 as=2.9 ps=20.58 w=10 l=0.35
X20 Z.t1 x1.nSEL2 x5.A VGND.t1 sky130_fd_pr__nfet_01v8_lvt ad=2.32 pd=16.58 as=2.32 ps=16.58 w=8 l=0.35
X21 A3.t3 x1.gpo2 x5.A VPWR.t78 sky130_fd_pr__pfet_01v8_lvt ad=2.9 pd=20.58 as=2.9 ps=20.58 w=10 l=0.35
X22 VGND.t75 select1.t1 x1.nSEL1 VGND.t74 sky130_fd_pr__nfet_01v8 ad=0.169 pd=1.82 as=0.08775 ps=0.92 w=0.65 l=0.15
X23 x1.gpo3.t1 x1.gno3.t4 VPWR.t33 VPWR.t32 sky130_fd_pr__pfet_01v8_hvt ad=0.135 pd=1.27 as=0.26 ps=2.52 w=1 l=0.15
X24 Z.t7 select2.t3 x3.Z3 VGND.t70 sky130_fd_pr__nfet_01v8_lvt ad=2.32 pd=16.58 as=2.32 ps=16.58 w=8 l=0.35
X25 VGND.t3 a_5645_7149# x1.gno3.t1 VGND.t2 sky130_fd_pr__nfet_01v8 ad=0.1118 pd=1.04 as=0.182 ps=1.86 w=0.65 l=0.15
X26 VPWR.t57 a_5645_6637# a_5645_6461# VPWR.t56 sky130_fd_pr__pfet_01v8_hvt ad=0.0714 pd=0.76 as=0.0609 ps=0.71 w=0.42 l=0.15
X27 x3.Z3 x1.gno1 A6.t3 VGND.t44 sky130_fd_pr__nfet_01v8_lvt ad=2.32 pd=16.58 as=2.32 ps=16.58 w=8 l=0.35
X28 a_5645_7149# select1.t2 a_5699_7287# VGND.t56 sky130_fd_pr__nfet_01v8 ad=0.1176 pd=1.4 as=0.0567 ps=0.69 w=0.42 l=0.15
X29 x3.Z3 x1.gno0.t3 A5.t2 VGND.t15 sky130_fd_pr__nfet_01v8_lvt ad=2.32 pd=16.58 as=2.32 ps=16.58 w=8 l=0.35
X30 a_5645_6637# select0.t3 VPWR.t21 VPWR.t20 sky130_fd_pr__pfet_01v8_hvt ad=0.1092 pd=1.36 as=0.0714 ps=0.76 w=0.42 l=0.15
X31 VGND.t24 x1.gno0.t4 x1.gpo0.t3 VGND.t23 sky130_fd_pr__nfet_01v8 ad=0.169 pd=1.82 as=0.08775 ps=0.92 w=0.65 l=0.15
X32 a_5699_7287# select0.t4 VGND.t62 VGND.t61 sky130_fd_pr__nfet_01v8 ad=0.0567 pd=0.69 as=0.1118 ps=1.04 w=0.42 l=0.15
X33 VGND.t9 VPWR.t80 VGND.t8 VGND.t7 sky130_fd_pr__nfet_01v8 ad=0.143 pd=1.62 as=0 ps=0 w=0.55 l=1.05
X34 x5.A x1.gno2 A3.t1 VGND.t30 sky130_fd_pr__nfet_01v8_lvt ad=2.32 pd=16.58 as=2.32 ps=16.58 w=8 l=0.35
X35 A8.t3 x1.gpo3.t4 x3.Z3 VPWR.t7 sky130_fd_pr__pfet_01v8_lvt ad=2.9 pd=20.58 as=2.9 ps=20.58 w=10 l=0.35
X36 A1.t0 x1.gpo0.t5 x5.A VPWR.t60 sky130_fd_pr__pfet_01v8_lvt ad=2.9 pd=20.58 as=2.9 ps=20.58 w=10 l=0.35
X37 a_5645_6461# a_5645_6637# a_5671_6589# VGND.t60 sky130_fd_pr__nfet_01v8 ad=0.1092 pd=1.36 as=0.0504 ps=0.66 w=0.42 l=0.15
X38 x5.A x1.gno3.t5 A4.t0 VGND.t22 sky130_fd_pr__nfet_01v8_lvt ad=2.32 pd=16.58 as=2.32 ps=16.58 w=8 l=0.35
X39 VGND.t32 x1.gno2 x1.gpo2 VGND.t31 sky130_fd_pr__nfet_01v8 ad=0.169 pd=1.82 as=0.08775 ps=0.92 w=0.65 l=0.15
X40 x1.gpo0.t2 x1.gno0.t5 VGND.t34 VGND.t33 sky130_fd_pr__nfet_01v8 ad=0.08775 pd=0.92 as=0.169 ps=1.82 w=0.65 l=0.15
X41 VGND.t64 select0.t5 a_5645_6637# VGND.t63 sky130_fd_pr__nfet_01v8 ad=0.1092 pd=1.36 as=0.1092 ps=1.36 w=0.42 l=0.15
X42 Z.t0 x1.nSEL2 x5.A VGND.t0 sky130_fd_pr__nfet_01v8_lvt ad=2.32 pd=16.58 as=2.32 ps=16.58 w=8 l=0.35
X43 VPWR.t19 select1.t3 x1.nSEL1 VPWR.t18 sky130_fd_pr__pfet_01v8_hvt ad=0.26 pd=2.52 as=0.135 ps=1.27 w=1 l=0.15
X44 VPWR.t17 select1.t4 a_5645_7149# VPWR.t16 sky130_fd_pr__pfet_01v8_hvt ad=0.1176 pd=1.4 as=0.0567 ps=0.69 w=0.42 l=0.15
X45 A5.t1 x1.gpo0.t6 x3.Z3 VPWR.t4 sky130_fd_pr__pfet_01v8_lvt ad=2.9 pd=20.58 as=2.9 ps=20.58 w=10 l=0.35
X46 VPWR.t71 VGND.t77 VPWR.t70 VPWR.t69 sky130_fd_pr__pfet_01v8_hvt ad=0.2262 pd=2.26 as=0 ps=0 w=0.87 l=1.05
X47 Z.t6 select2.t4 x3.Z3 VGND.t57 sky130_fd_pr__nfet_01v8_lvt ad=2.32 pd=16.58 as=2.32 ps=16.58 w=8 l=0.35
X48 VPWR.t41 a_5645_5493# x1.gno0.t0 VPWR.t40 sky130_fd_pr__pfet_01v8_hvt ad=0.16655 pd=1.39 as=0.475 ps=2.95 w=1 l=0.15
X49 a_5645_7149# select0.t6 VPWR.t62 VPWR.t61 sky130_fd_pr__pfet_01v8_hvt ad=0.0567 pd=0.69 as=0.16655 ps=1.39 w=0.42 l=0.15
X50 VPWR.t76 x1.gno0.t6 x1.gpo0.t1 VPWR.t75 sky130_fd_pr__pfet_01v8_hvt ad=0.26 pd=2.52 as=0.135 ps=1.27 w=1 l=0.15
X51 x3.Z3 x1.gno2 A7.t1 VGND.t27 sky130_fd_pr__nfet_01v8_lvt ad=2.32 pd=16.58 as=2.32 ps=16.58 w=8 l=0.35
X52 x3.Z3 x1.gno1 A6.t2 VGND.t44 sky130_fd_pr__nfet_01v8_lvt ad=2.32 pd=16.58 as=2.32 ps=16.58 w=8 l=0.35
X53 A4.t3 x1.gpo3.t5 x5.A VPWR.t22 sky130_fd_pr__pfet_01v8_lvt ad=2.9 pd=20.58 as=2.9 ps=20.58 w=10 l=0.35
X54 VGND.t19 select2.t5 x1.nSEL2 VGND.t18 sky130_fd_pr__nfet_01v8 ad=0.169 pd=1.82 as=0.08775 ps=0.92 w=0.65 l=0.15
X55 a_5645_5493# x1.nSEL0 a_5699_5631# VGND.t58 sky130_fd_pr__nfet_01v8 ad=0.1176 pd=1.4 as=0.0567 ps=0.69 w=0.42 l=0.15
X56 x1.nSEL1 select1.t5 VGND.t17 VGND.t16 sky130_fd_pr__nfet_01v8 ad=0.08775 pd=0.92 as=0.169 ps=1.82 w=0.65 l=0.15
X57 x5.A x1.gno0.t7 A1.t3 VGND.t4 sky130_fd_pr__nfet_01v8_lvt ad=2.32 pd=16.58 as=2.32 ps=16.58 w=8 l=0.35
X58 VPWR.t25 x1.gno2 x1.gpo2 VPWR.t10 sky130_fd_pr__pfet_01v8_hvt ad=0.26 pd=2.52 as=0.135 ps=1.27 w=1 l=0.15
X59 x1.gpo0.t0 x1.gno0.t8 VPWR.t9 VPWR.t8 sky130_fd_pr__pfet_01v8_hvt ad=0.135 pd=1.27 as=0.26 ps=2.52 w=1 l=0.15
X60 a_5645_5909# select0.t7 VPWR.t43 VPWR.t42 sky130_fd_pr__pfet_01v8_hvt ad=0.0609 pd=0.71 as=0.2279 ps=1.74 w=0.42 l=0.15
X61 x5.A x1.gno2 A3.t0 VGND.t30 sky130_fd_pr__nfet_01v8_lvt ad=2.32 pd=16.58 as=2.32 ps=16.58 w=8 l=0.35
X62 A2.t3 x1.gpo1.t4 x5.A VPWR.t5 sky130_fd_pr__pfet_01v8_lvt ad=2.9 pd=20.58 as=2.9 ps=20.58 w=10 l=0.35
X63 x5.A x1.gno0.t9 A1.t2 VGND.t4 sky130_fd_pr__nfet_01v8_lvt ad=2.32 pd=16.58 as=2.32 ps=16.58 w=8 l=0.35
X64 A3.t2 x1.gpo2 x5.A VPWR.t78 sky130_fd_pr__pfet_01v8_lvt ad=2.9 pd=20.58 as=2.9 ps=20.58 w=10 l=0.35
X65 VPWR.t68 VGND.t78 VPWR.t67 VPWR.t66 sky130_fd_pr__pfet_01v8_hvt ad=0.2262 pd=2.26 as=0 ps=0 w=0.87 l=1.05
X66 a_5699_5631# x1.nSEL1 VGND.t52 VGND.t51 sky130_fd_pr__nfet_01v8 ad=0.0567 pd=0.69 as=0.1118 ps=1.04 w=0.42 l=0.15
X67 VGND.t73 VPWR.t81 VGND.t72 VGND.t71 sky130_fd_pr__nfet_01v8 ad=0.143 pd=1.62 as=0 ps=0 w=0.55 l=1.05
X68 x3.Z3 x1.gno3.t6 A8.t1 VGND.t14 sky130_fd_pr__nfet_01v8_lvt ad=2.32 pd=16.58 as=2.32 ps=16.58 w=8 l=0.35
X69 VPWR.t45 a_5645_6461# x1.gno2 VPWR.t44 sky130_fd_pr__pfet_01v8_hvt ad=0.2279 pd=1.74 as=0.26 ps=2.52 w=1 l=0.15
X70 VGND.t43 x1.gno1 x1.gpo1.t3 VGND.t42 sky130_fd_pr__nfet_01v8 ad=0.169 pd=1.82 as=0.08775 ps=0.92 w=0.65 l=0.15
X71 A6.t1 x1.gpo1.t5 x3.Z3 VPWR.t6 sky130_fd_pr__pfet_01v8_lvt ad=2.9 pd=20.58 as=2.9 ps=20.58 w=10 l=0.35
X72 A5.t0 x1.gpo0.t7 x3.Z3 VPWR.t4 sky130_fd_pr__pfet_01v8_lvt ad=2.9 pd=20.58 as=2.9 ps=20.58 w=10 l=0.35
X73 VPWR.t51 x1.nSEL0 a_5645_5493# VPWR.t50 sky130_fd_pr__pfet_01v8_hvt ad=0.1176 pd=1.4 as=0.0567 ps=0.69 w=0.42 l=0.15
X74 x1.gpo1.t2 x1.gno1 VGND.t41 VGND.t40 sky130_fd_pr__nfet_01v8 ad=0.08775 pd=0.92 as=0.169 ps=1.82 w=0.65 l=0.15
X75 VGND.t69 x1.gno3.t7 x1.gpo3.t2 VGND.t68 sky130_fd_pr__nfet_01v8 ad=0.169 pd=1.82 as=0.08775 ps=0.92 w=0.65 l=0.15
X76 VPWR.t35 a_5645_5909# x1.gno1 VPWR.t34 sky130_fd_pr__pfet_01v8_hvt ad=0.2279 pd=1.74 as=0.26 ps=2.52 w=1 l=0.15
X77 x1.gpo2 x1.gno2 VGND.t29 VGND.t28 sky130_fd_pr__nfet_01v8 ad=0.08775 pd=0.92 as=0.169 ps=1.82 w=0.65 l=0.15
X78 A7.t2 x1.gpo2 x3.Z3 VPWR.t77 sky130_fd_pr__pfet_01v8_lvt ad=2.9 pd=20.58 as=2.9 ps=20.58 w=10 l=0.35
X79 x1.nSEL1 select1.t6 VPWR.t15 VPWR.t14 sky130_fd_pr__pfet_01v8_hvt ad=0.135 pd=1.27 as=0.26 ps=2.52 w=1 l=0.15
X80 VPWR.t27 select2.t6 x1.nSEL2 VPWR.t26 sky130_fd_pr__pfet_01v8_hvt ad=0.26 pd=2.52 as=0.135 ps=1.27 w=1 l=0.15
X81 a_5671_6589# select1.t7 VGND.t21 VGND.t20 sky130_fd_pr__nfet_01v8 ad=0.0504 pd=0.66 as=0.1013 ps=0.99 w=0.42 l=0.15
X82 x3.Z3 x1.gno2 A7.t0 VGND.t27 sky130_fd_pr__nfet_01v8_lvt ad=2.32 pd=16.58 as=2.32 ps=16.58 w=8 l=0.35
X83 A8.t2 x1.gpo3.t6 x3.Z3 VPWR.t7 sky130_fd_pr__pfet_01v8_lvt ad=2.9 pd=20.58 as=2.9 ps=20.58 w=10 l=0.35
X84 A4.t2 x1.gpo3.t7 x5.A VPWR.t22 sky130_fd_pr__pfet_01v8_lvt ad=2.9 pd=20.58 as=2.9 ps=20.58 w=10 l=0.35
X85 a_5645_5493# x1.nSEL1 VPWR.t47 VPWR.t46 sky130_fd_pr__pfet_01v8_hvt ad=0.0567 pd=0.69 as=0.16655 ps=1.39 w=0.42 l=0.15
X86 VGND.t46 a_5645_5493# x1.gno0.t1 VGND.t45 sky130_fd_pr__nfet_01v8 ad=0.1118 pd=1.04 as=0.182 ps=1.86 w=0.65 l=0.15
X87 VGND.t55 VPWR.t82 VGND.t54 VGND.t53 sky130_fd_pr__nfet_01v8 ad=0.143 pd=1.62 as=0 ps=0 w=0.55 l=1.05
X88 x5.A x1.gno1 A2.t1 VGND.t39 sky130_fd_pr__nfet_01v8_lvt ad=2.32 pd=16.58 as=2.32 ps=16.58 w=8 l=0.35
X89 VPWR.t39 x1.gno1 x1.gpo1.t1 VPWR.t38 sky130_fd_pr__pfet_01v8_hvt ad=0.26 pd=2.52 as=0.135 ps=1.27 w=1 l=0.15
X90 A2.t0 x1.gpo1.t6 x5.A VPWR.t5 sky130_fd_pr__pfet_01v8_lvt ad=2.9 pd=20.58 as=2.9 ps=20.58 w=10 l=0.35
X91 VPWR.t3 a_5645_7149# x1.gno3.t0 VPWR.t2 sky130_fd_pr__pfet_01v8_hvt ad=0.16655 pd=1.39 as=0.475 ps=2.95 w=1 l=0.15
X92 x1.nSEL2 select2.t7 VGND.t26 VGND.t25 sky130_fd_pr__nfet_01v8 ad=0.08775 pd=0.92 as=0.169 ps=1.82 w=0.65 l=0.15
X93 VGND.t48 select0.t8 x1.nSEL0 VGND.t47 sky130_fd_pr__nfet_01v8 ad=0.169 pd=1.82 as=0.08775 ps=0.92 w=0.65 l=0.15
X94 x1.gpo1.t0 x1.gno1 VPWR.t37 VPWR.t36 sky130_fd_pr__pfet_01v8_hvt ad=0.135 pd=1.27 as=0.26 ps=2.52 w=1 l=0.15
X95 VPWR.t49 x1.gno3.t8 x1.gpo3.t0 VPWR.t48 sky130_fd_pr__pfet_01v8_hvt ad=0.26 pd=2.52 as=0.135 ps=1.27 w=1 l=0.15
X96 x3.Z3 x1.gno3.t9 A8.t0 VGND.t14 sky130_fd_pr__nfet_01v8_lvt ad=2.32 pd=16.58 as=2.32 ps=16.58 w=8 l=0.35
X97 VPWR.t55 a_5645_6085# a_5645_5909# VPWR.t54 sky130_fd_pr__pfet_01v8_hvt ad=0.0714 pd=0.76 as=0.0609 ps=0.71 w=0.42 l=0.15
X98 x1.gpo2 x1.gno2 VPWR.t24 VPWR.t23 sky130_fd_pr__pfet_01v8_hvt ad=0.135 pd=1.27 as=0.26 ps=2.52 w=1 l=0.15
X99 VPWR.t65 VGND.t79 VPWR.t64 VPWR.t63 sky130_fd_pr__pfet_01v8_hvt ad=0.2262 pd=2.26 as=0 ps=0 w=0.87 l=1.05
X100 a_5645_6085# select1.t8 VPWR.t13 VPWR.t12 sky130_fd_pr__pfet_01v8_hvt ad=0.1092 pd=1.36 as=0.0714 ps=0.76 w=0.42 l=0.15
X101 x1.nSEL0 select0.t9 VGND.t11 VGND.t10 sky130_fd_pr__nfet_01v8 ad=0.08775 pd=0.92 as=0.169 ps=1.82 w=0.65 l=0.15
X102 a_5645_6461# select1.t9 VPWR.t11 VPWR.t10 sky130_fd_pr__pfet_01v8_hvt ad=0.0609 pd=0.71 as=0.2279 ps=1.74 w=0.42 l=0.15
X103 A6.t0 x1.gpo1.t7 x3.Z3 VPWR.t6 sky130_fd_pr__pfet_01v8_lvt ad=2.9 pd=20.58 as=2.9 ps=20.58 w=10 l=0.35
R0 VGND.n237 VGND.n236 587674
R1 VGND.n171 VGND.n170 153375
R2 VGND.n193 VGND.n178 117542
R3 VGND.n249 VGND.n172 71206.2
R4 VGND.n249 VGND.n248 64736.2
R5 VGND.n238 VGND.n9 16580.8
R6 VGND.n242 VGND.n173 11744.7
R7 VGND.n247 VGND.n173 11744.7
R8 VGND.n242 VGND.n174 11744.7
R9 VGND.n247 VGND.n174 11744.7
R10 VGND.n253 VGND.n28 11744.7
R11 VGND.n253 VGND.n29 11744.7
R12 VGND.n257 VGND.n29 11744.7
R13 VGND.n257 VGND.n28 11744.7
R14 VGND.n264 VGND.n22 11744.7
R15 VGND.n260 VGND.n22 11744.7
R16 VGND.n264 VGND.n23 11744.7
R17 VGND.n260 VGND.n23 11744.7
R18 VGND.n271 VGND.n16 11744.7
R19 VGND.n267 VGND.n16 11744.7
R20 VGND.n271 VGND.n17 11744.7
R21 VGND.n267 VGND.n17 11744.7
R22 VGND.n278 VGND.n10 11744.7
R23 VGND.n274 VGND.n10 11744.7
R24 VGND.n278 VGND.n11 11744.7
R25 VGND.n274 VGND.n11 11744.7
R26 VGND.n190 VGND.n179 11744.7
R27 VGND.n185 VGND.n179 11744.7
R28 VGND.n190 VGND.n181 11744.7
R29 VGND.n185 VGND.n181 11744.7
R30 VGND.n205 VGND.n204 11744.7
R31 VGND.n201 VGND.n200 11744.7
R32 VGND.n204 VGND.n201 11744.7
R33 VGND.n234 VGND.n194 11744.7
R34 VGND.n230 VGND.n195 11744.7
R35 VGND.n234 VGND.n195 11744.7
R36 VGND.n218 VGND.n217 11744.7
R37 VGND.n214 VGND.n213 11744.7
R38 VGND.n217 VGND.n214 11744.7
R39 VGND.n281 VGND.n4 11744.7
R40 VGND.n281 VGND.n5 11744.7
R41 VGND.n7 VGND.n4 11744.7
R42 VGND.n237 VGND.n178 10428.2
R43 VGND.n238 VGND.n191 7573.12
R44 VGND.n191 VGND.t0 7065.1
R45 VGND.t1 VGND.n172 7065.1
R46 VGND.n180 VGND.t0 6710.74
R47 VGND.n180 VGND.t1 6710.74
R48 VGND.n241 VGND.n239 6647.5
R49 VGND.n273 VGND.n272 6049.9
R50 VGND.n241 VGND.t70 6006.85
R51 VGND.n248 VGND.t57 6006.85
R52 VGND.n259 VGND.n258 6004.3
R53 VGND.n280 VGND.n279 5972.7
R54 VGND.n266 VGND.n265 5963.12
R55 VGND.t70 VGND.n240 5705.56
R56 VGND.n240 VGND.t57 5705.56
R57 VGND.n239 VGND.n178 4796.58
R58 VGND.n238 VGND.n237 3666.67
R59 VGND.n192 VGND.n9 3385.09
R60 VGND.n15 VGND.n9 3361.58
R61 VGND.n27 VGND.n21 3305.56
R62 VGND.n235 VGND.n193 3279.94
R63 VGND.n21 VGND.n15 3275.35
R64 VGND.n62 VGND.n27 2366.85
R65 VGND.n250 VGND.n249 2235.82
R66 VGND.n236 VGND.n235 1652.78
R67 VGND.n236 VGND.n192 1652.78
R68 VGND.t2 VGND.n169 1550.96
R69 VGND VGND.t63 1289.66
R70 VGND.n137 VGND.n136 1198.25
R71 VGND.n159 VGND.n40 1198.25
R72 VGND.n169 VGND.n168 1194.5
R73 VGND.n140 VGND.n139 1171.32
R74 VGND.n251 VGND.n250 1006.48
R75 VGND.n169 VGND 918.774
R76 VGND.t45 VGND 918.774
R77 VGND.t61 VGND.t2 910.346
R78 VGND.t20 VGND.t49 826.054
R79 VGND.t35 VGND.t37 826.054
R80 VGND.t5 VGND.t74 792.337
R81 VGND.n256 VGND.n255 767.294
R82 VGND.n270 VGND.n269 767.294
R83 VGND.n232 VGND.n231 767.294
R84 VGND.n6 VGND.n3 767.294
R85 VGND.n263 VGND.n262 763.106
R86 VGND.n277 VGND.n276 763.106
R87 VGND.n202 VGND.n198 763.106
R88 VGND.n215 VGND.n211 763.106
R89 VGND.n243 VGND.n177 763.09
R90 VGND.n189 VGND.n182 763.09
R91 VGND.n177 VGND.n175 732.236
R92 VGND.n256 VGND.n30 732.236
R93 VGND.n270 VGND.n18 732.236
R94 VGND.n263 VGND.n24 732.236
R95 VGND.n277 VGND.n12 732.236
R96 VGND.n184 VGND.n182 732.236
R97 VGND.n207 VGND.n198 732.236
R98 VGND.n231 VGND.n228 732.236
R99 VGND.n220 VGND.n211 732.236
R100 VGND.n6 VGND.n1 732.236
R101 VGND.n250 VGND.n171 709.912
R102 VGND.t18 VGND.t25 708.047
R103 VGND.t74 VGND.t16 708.047
R104 VGND.t47 VGND.t10 708.047
R105 VGND.t58 VGND.t51 708.047
R106 VGND.n139 VGND.t65 606.351
R107 VGND.t56 VGND 564.751
R108 VGND.t25 VGND 564.751
R109 VGND.t10 VGND 564.751
R110 VGND VGND.t58 564.751
R111 VGND.n171 VGND 564.751
R112 VGND.n170 VGND.t56 522.606
R113 VGND.t51 VGND.t71 522.606
R114 VGND.t59 VGND 480.461
R115 VGND VGND.t53 408.628
R116 VGND.t71 VGND.t45 387.74
R117 VGND.n138 VGND 384.901
R118 VGND.t42 VGND.n137 374.356
R119 VGND.n40 VGND.t60 337.166
R120 VGND.n252 VGND.n251 332.642
R121 VGND.t68 VGND 329.539
R122 VGND.t31 VGND 329.539
R123 VGND.t23 VGND 329.539
R124 VGND.n255 VGND.n254 325.502
R125 VGND.n269 VGND.n268 325.502
R126 VGND.n233 VGND.n232 325.502
R127 VGND.n282 VGND.n3 325.502
R128 VGND.n40 VGND.t20 320.307
R129 VGND.n244 VGND.n243 304.553
R130 VGND.n189 VGND.n188 304.553
R131 VGND.n262 VGND.n261 304.204
R132 VGND.n276 VGND.n275 304.204
R133 VGND.n203 VGND.n202 304.204
R134 VGND.n216 VGND.n215 304.204
R135 VGND.t60 VGND 295.019
R136 VGND.n245 VGND.n244 266.349
R137 VGND.n188 VGND.n187 266.349
R138 VGND VGND.t5 261.303
R139 VGND.t7 VGND 244.445
R140 VGND.n254 VGND.n32 242.448
R141 VGND.n268 VGND.n20 242.448
R142 VGND.n261 VGND.n26 242.448
R143 VGND.n275 VGND.n14 242.448
R144 VGND.n203 VGND.n197 242.448
R145 VGND.n233 VGND.n196 242.448
R146 VGND.n216 VGND.n210 242.448
R147 VGND.n283 VGND.n282 242.448
R148 VGND.n152 VGND.t6 240.575
R149 VGND.n164 VGND.t64 237.327
R150 VGND.t12 VGND.t68 221.451
R151 VGND.t28 VGND.t31 221.451
R152 VGND.t40 VGND.t42 221.451
R153 VGND.t33 VGND.t23 221.451
R154 VGND.n106 VGND.t79 218.308
R155 VGND.n82 VGND.t78 218.308
R156 VGND.n50 VGND.t77 218.308
R157 VGND.n36 VGND.t76 218.308
R158 VGND.n103 VGND.t66 214.456
R159 VGND.n105 VGND.t67 214.456
R160 VGND.n80 VGND.t54 214.456
R161 VGND.n67 VGND.t55 214.456
R162 VGND.n45 VGND.t72 214.456
R163 VGND.n49 VGND.t73 214.456
R164 VGND.n34 VGND.t8 214.456
R165 VGND.n37 VGND.t9 214.456
R166 VGND.n74 VGND.n70 204.457
R167 VGND.n146 VGND.n44 200.231
R168 VGND.n39 VGND.n38 200.231
R169 VGND.n52 VGND.n47 200.105
R170 VGND.n137 VGND 197.724
R171 VGND.n139 VGND 197.724
R172 VGND.n276 VGND.n11 195
R173 VGND.n11 VGND.t22 195
R174 VGND.n13 VGND.n10 195
R175 VGND.n10 VGND.t22 195
R176 VGND.n269 VGND.n17 195
R177 VGND.n17 VGND.t30 195
R178 VGND.n19 VGND.n16 195
R179 VGND.n16 VGND.t30 195
R180 VGND.n262 VGND.n23 195
R181 VGND.n23 VGND.t39 195
R182 VGND.n25 VGND.n22 195
R183 VGND.n22 VGND.t39 195
R184 VGND.n31 VGND.n28 195
R185 VGND.n138 VGND.n28 195
R186 VGND.n255 VGND.n29 195
R187 VGND.n29 VGND.t4 195
R188 VGND.n186 VGND.n185 195
R189 VGND.n185 VGND.n172 195
R190 VGND.n190 VGND.n189 195
R191 VGND.n191 VGND.n190 195
R192 VGND.n247 VGND.n246 195
R193 VGND.n248 VGND.n247 195
R194 VGND.n243 VGND.n242 195
R195 VGND.n242 VGND.n241 195
R196 VGND.n202 VGND.n201 195
R197 VGND.n201 VGND.t14 195
R198 VGND.n206 VGND.n205 195
R199 VGND.n232 VGND.n195 195
R200 VGND.n195 VGND.t27 195
R201 VGND.n227 VGND.n194 195
R202 VGND.n215 VGND.n214 195
R203 VGND.n214 VGND.t44 195
R204 VGND.n219 VGND.n218 195
R205 VGND.n4 VGND.n2 195
R206 VGND.t15 VGND.n4 195
R207 VGND.n5 VGND.n3 195
R208 VGND.n8 VGND.n5 188.989
R209 VGND.n218 VGND.n212 188.988
R210 VGND.n229 VGND.n194 188.986
R211 VGND.n205 VGND.n199 188.984
R212 VGND.n170 VGND.t61 185.441
R213 VGND.n258 VGND.t4 183.936
R214 VGND VGND.t35 177.012
R215 VGND VGND.t28 176.633
R216 VGND VGND.t40 176.633
R217 VGND VGND.t33 176.633
R218 VGND.n251 VGND 176.633
R219 VGND.n200 VGND.n199 173.373
R220 VGND.n230 VGND.n229 173.304
R221 VGND.n213 VGND.n212 173.167
R222 VGND.n8 VGND.n7 173.097
R223 VGND.n115 VGND.t69 162.471
R224 VGND.n120 VGND.t32 162.471
R225 VGND.n64 VGND.t43 162.471
R226 VGND.n130 VGND.t24 162.471
R227 VGND.n41 VGND.t75 162.471
R228 VGND.n146 VGND.t48 160.046
R229 VGND.n39 VGND.t19 160.046
R230 VGND.n119 VGND.t13 160.017
R231 VGND.n63 VGND.t29 160.017
R232 VGND.n131 VGND.t41 160.017
R233 VGND.n126 VGND.t34 160.017
R234 VGND.n57 VGND.t11 160.017
R235 VGND.n147 VGND.t17 160.017
R236 VGND.n152 VGND.t26 158.534
R237 VGND.n279 VGND.t22 155.954
R238 VGND.n272 VGND.t30 155.954
R239 VGND.n265 VGND.t39 155.831
R240 VGND.n252 VGND.t4 139.648
R241 VGND.n204 VGND.n193 118.54
R242 VGND.n235 VGND.n234 111.895
R243 VGND.n217 VGND.n192 111.808
R244 VGND.n273 VGND.n15 99.881
R245 VGND.n266 VGND.n21 93.748
R246 VGND.n259 VGND.n27 93.6734
R247 VGND.n62 VGND.t12 89.635
R248 VGND.n9 VGND.t15 89.4314
R249 VGND VGND.n62 86.9987
R250 VGND.t16 VGND.t59 84.2917
R251 VGND.n239 VGND.n238 79.0175
R252 VGND.n47 VGND.t52 72.8576
R253 VGND.n70 VGND.t62 72.8576
R254 VGND.n280 VGND.n9 72.6343
R255 VGND.n235 VGND.t27 66.9242
R256 VGND.t44 VGND.n192 66.8669
R257 VGND.n21 VGND.t30 62.2068
R258 VGND.n27 VGND.t39 62.1573
R259 VGND.t14 VGND.n193 60.352
R260 VGND.n44 VGND.t36 58.5719
R261 VGND.n38 VGND.t21 58.5719
R262 VGND.n15 VGND.t22 56.0738
R263 VGND.n246 VGND.n245 54.2123
R264 VGND.n187 VGND.n186 54.2123
R265 VGND.t49 VGND.t18 50.5752
R266 VGND.t37 VGND.t47 50.5752
R267 VGND.n76 VGND 43.9579
R268 VGND.n253 VGND.n252 42.2329
R269 VGND.n76 VGND.n75 34.6358
R270 VGND.n73 VGND.n33 34.6358
R271 VGND.n246 VGND.n175 30.8711
R272 VGND.n31 VGND.n30 30.8711
R273 VGND.n19 VGND.n18 30.8711
R274 VGND.n25 VGND.n24 30.8711
R275 VGND.n13 VGND.n12 30.8711
R276 VGND.n186 VGND.n184 30.8711
R277 VGND.n207 VGND.n206 30.8711
R278 VGND.n228 VGND.n227 30.8711
R279 VGND.n220 VGND.n219 30.8711
R280 VGND.n2 VGND.n1 30.8711
R281 VGND.n140 VGND.n61 26.9246
R282 VGND.n168 VGND.n33 25.6926
R283 VGND.n44 VGND.t38 25.4291
R284 VGND.n38 VGND.t50 25.4291
R285 VGND.n115 VGND.n66 25.224
R286 VGND.n119 VGND.n66 25.224
R287 VGND.n121 VGND.n120 25.224
R288 VGND.n121 VGND.n63 25.224
R289 VGND.n132 VGND.n64 25.224
R290 VGND.n132 VGND.n131 25.224
R291 VGND.n130 VGND.n129 25.224
R292 VGND.n129 VGND.n126 25.224
R293 VGND.n57 VGND.n43 25.224
R294 VGND.n148 VGND.n41 25.224
R295 VGND.n148 VGND.n147 25.224
R296 VGND.n153 VGND.n152 24.0946
R297 VGND.t65 VGND.n138 23.7273
R298 VGND.n47 VGND.t46 22.3257
R299 VGND.n70 VGND.t3 22.3257
R300 VGND.n146 VGND.n43 21.4593
R301 VGND.n153 VGND.n39 21.4593
R302 VGND.n120 VGND.n119 20.3299
R303 VGND.n131 VGND.n130 20.3299
R304 VGND.n115 VGND.n114 19.2926
R305 VGND.n57 VGND.n56 17.7867
R306 VGND.n136 VGND.n64 17.3181
R307 VGND.t63 VGND.t7 16.8587
R308 VGND.n136 VGND.n63 15.8123
R309 VGND.n126 VGND.n61 15.8123
R310 VGND.n281 VGND.n280 15.1478
R311 VGND.n102 VGND.n61 14.775
R312 VGND.n160 VGND.n159 14.775
R313 VGND.n152 VGND.n41 13.5534
R314 VGND.n79 VGND.n78 11.2844
R315 VGND.n275 VGND.n274 11.0382
R316 VGND.n274 VGND.n273 11.0382
R317 VGND.n278 VGND.n277 11.0382
R318 VGND.n279 VGND.n278 11.0382
R319 VGND.n268 VGND.n267 11.0382
R320 VGND.n267 VGND.n266 11.0382
R321 VGND.n271 VGND.n270 11.0382
R322 VGND.n272 VGND.n271 11.0382
R323 VGND.n261 VGND.n260 11.0382
R324 VGND.n260 VGND.n259 11.0382
R325 VGND.n264 VGND.n263 11.0382
R326 VGND.n265 VGND.n264 11.0382
R327 VGND.n254 VGND.n253 11.0382
R328 VGND.n257 VGND.n256 11.0382
R329 VGND.n258 VGND.n257 11.0382
R330 VGND.n188 VGND.n181 11.0382
R331 VGND.n181 VGND.n180 11.0382
R332 VGND.n182 VGND.n179 11.0382
R333 VGND.n180 VGND.n179 11.0382
R334 VGND.n244 VGND.n174 11.0382
R335 VGND.n240 VGND.n174 11.0382
R336 VGND.n177 VGND.n173 11.0382
R337 VGND.n240 VGND.n173 11.0382
R338 VGND.n204 VGND.n203 11.0382
R339 VGND.n200 VGND.n198 11.0382
R340 VGND.n234 VGND.n233 11.0382
R341 VGND.n231 VGND.n230 11.0382
R342 VGND.n217 VGND.n216 11.0382
R343 VGND.n213 VGND.n211 11.0382
R344 VGND.n7 VGND.n6 11.0382
R345 VGND.n282 VGND.n281 11.0382
R346 VGND.n32 VGND.n31 10.9181
R347 VGND.n20 VGND.n19 10.9181
R348 VGND.n26 VGND.n25 10.9181
R349 VGND.n14 VGND.n13 10.9181
R350 VGND.n206 VGND.n197 10.9181
R351 VGND.n227 VGND.n196 10.9181
R352 VGND.n219 VGND.n210 10.9181
R353 VGND.n283 VGND.n2 10.9181
R354 VGND.n176 VGND.n175 10.4476
R355 VGND.n85 VGND.n30 10.4476
R356 VGND.n89 VGND.n18 10.4476
R357 VGND.n87 VGND.n24 10.4476
R358 VGND.n91 VGND.n12 10.4476
R359 VGND.n184 VGND.n183 10.4476
R360 VGND.n208 VGND.n207 10.4476
R361 VGND.n228 VGND.n226 10.4476
R362 VGND.n221 VGND.n220 10.4476
R363 VGND.n284 VGND.n1 10.4476
R364 VGND.n147 VGND.n146 10.1652
R365 VGND.n105 VGND.n100 9.70901
R366 VGND.n80 VGND.n79 9.70901
R367 VGND.n49 VGND.n48 9.70901
R368 VGND.n74 VGND.n73 9.41227
R369 VGND.n141 VGND.n140 9.3005
R370 VGND.n127 VGND.n126 9.3005
R371 VGND.n131 VGND.n124 9.3005
R372 VGND.n136 VGND.n135 9.3005
R373 VGND.n123 VGND.n63 9.3005
R374 VGND.n119 VGND.n118 9.3005
R375 VGND.n114 VGND.n113 9.3005
R376 VGND.n84 VGND.n83 9.3005
R377 VGND.n81 VGND.n68 9.3005
R378 VGND.n116 VGND.n115 9.3005
R379 VGND.n117 VGND.n66 9.3005
R380 VGND.n120 VGND.n65 9.3005
R381 VGND.n122 VGND.n121 9.3005
R382 VGND.n134 VGND.n64 9.3005
R383 VGND.n133 VGND.n132 9.3005
R384 VGND.n130 VGND.n125 9.3005
R385 VGND.n129 VGND.n128 9.3005
R386 VGND.n108 VGND.n107 9.3005
R387 VGND.n104 VGND.n99 9.3005
R388 VGND.n102 VGND.n101 9.3005
R389 VGND.n61 VGND.n59 9.3005
R390 VGND.n168 VGND.n167 9.3005
R391 VGND.n166 VGND.n165 9.3005
R392 VGND.n157 VGND.n39 9.3005
R393 VGND.n152 VGND.n151 9.3005
R394 VGND.n146 VGND.n145 9.3005
R395 VGND.n51 VGND.n46 9.3005
R396 VGND.n54 VGND.n53 9.3005
R397 VGND.n56 VGND.n55 9.3005
R398 VGND.n58 VGND.n57 9.3005
R399 VGND.n144 VGND.n43 9.3005
R400 VGND.n147 VGND.n42 9.3005
R401 VGND.n149 VGND.n148 9.3005
R402 VGND.n150 VGND.n41 9.3005
R403 VGND.n154 VGND.n153 9.3005
R404 VGND.n161 VGND.n160 9.3005
R405 VGND.n163 VGND.n162 9.3005
R406 VGND.n71 VGND.n33 9.3005
R407 VGND.n73 VGND.n72 9.3005
R408 VGND.n75 VGND.n69 9.3005
R409 VGND.n77 VGND.n76 9.3005
R410 VGND.n159 VGND.n158 9.3005
R411 VGND.n93 VGND.n92 8.45078
R412 VGND.n224 VGND.n209 8.45078
R413 VGND.n95 VGND.n86 8.30267
R414 VGND.n285 VGND.n0 8.30267
R415 VGND.n94 VGND.n88 7.97888
R416 VGND.n223 VGND.n222 7.97888
R417 VGND.n93 VGND.n90 7.97601
R418 VGND.n225 VGND.n224 7.97601
R419 VGND.n176 VGND 7.23036
R420 VGND.n183 VGND 7.23036
R421 VGND.n86 VGND.n85 7.16724
R422 VGND.n90 VGND.n89 7.16724
R423 VGND.n88 VGND.n87 7.16724
R424 VGND.n92 VGND.n91 7.16724
R425 VGND.n209 VGND.n208 7.16724
R426 VGND.n226 VGND.n225 7.16724
R427 VGND.n222 VGND.n221 7.16724
R428 VGND.n285 VGND.n284 7.16724
R429 VGND.n159 VGND.n39 7.15344
R430 VGND.n143 VGND.n142 6.50373
R431 VGND.n75 VGND.n74 6.4005
R432 VGND.n107 VGND.n104 6.26433
R433 VGND.n83 VGND.n81 6.26433
R434 VGND.n104 VGND.n103 5.85582
R435 VGND.n81 VGND.n80 5.85582
R436 VGND.n53 VGND.n45 5.85582
R437 VGND.n165 VGND.n34 5.85582
R438 VGND.n164 VGND.n163 5.85582
R439 VGND.n142 VGND.n59 4.788
R440 VGND.n85 VGND.n32 4.73093
R441 VGND.n89 VGND.n20 4.73093
R442 VGND.n87 VGND.n26 4.73093
R443 VGND.n91 VGND.n14 4.73093
R444 VGND.n208 VGND.n197 4.73093
R445 VGND.n226 VGND.n196 4.73093
R446 VGND.n221 VGND.n210 4.73093
R447 VGND.n284 VGND.n283 4.73093
R448 VGND.n142 VGND.n141 4.50726
R449 VGND.n97 VGND 4.01425
R450 VGND.n96 VGND 4.01425
R451 VGND.n245 VGND.n176 3.78485
R452 VGND.n187 VGND.n183 3.78485
R453 VGND.n52 VGND.n51 3.40476
R454 VGND.n107 VGND.n106 3.13241
R455 VGND.n83 VGND.n82 3.13241
R456 VGND.n51 VGND.n50 3.13241
R457 VGND.n163 VGND.n36 3.13241
R458 VGND.n155 VGND.n35 2.88636
R459 VGND.t14 VGND.n199 2.87953
R460 VGND.n229 VGND.t27 2.87839
R461 VGND.t44 VGND.n212 2.87611
R462 VGND.t15 VGND.n8 2.87497
R463 VGND.n53 VGND.n52 2.86007
R464 VGND.n106 VGND.n105 2.7239
R465 VGND.n82 VGND.n67 2.7239
R466 VGND.n50 VGND.n49 2.7239
R467 VGND.n37 VGND.n36 2.7239
R468 VGND.n112 VGND.n111 1.753
R469 VGND.n110 VGND.n109 1.753
R470 VGND VGND.n98 1.48125
R471 VGND.n156 VGND.n155 1.21169
R472 VGND.n98 VGND.n97 1.11894
R473 VGND.n111 VGND 0.95037
R474 VGND.n111 VGND.n110 0.761313
R475 VGND.n155 VGND 0.531208
R476 VGND.n94 VGND.n93 0.467019
R477 VGND.n224 VGND.n223 0.467019
R478 VGND.n103 VGND.n102 0.409011
R479 VGND.n114 VGND.n67 0.409011
R480 VGND.n56 VGND.n45 0.409011
R481 VGND.n168 VGND.n34 0.409011
R482 VGND.n165 VGND.n164 0.409011
R483 VGND.n160 VGND.n37 0.409011
R484 VGND.n97 VGND.n0 0.198729
R485 VGND.n96 VGND.n95 0.194976
R486 VGND.n141 VGND.n60 0.1255
R487 VGND.n79 VGND.n68 0.120292
R488 VGND.n84 VGND.n68 0.120292
R489 VGND.n117 VGND.n116 0.120292
R490 VGND.n118 VGND.n117 0.120292
R491 VGND.n122 VGND.n65 0.120292
R492 VGND.n123 VGND.n122 0.120292
R493 VGND.n134 VGND.n133 0.120292
R494 VGND.n133 VGND.n124 0.120292
R495 VGND.n128 VGND.n125 0.120292
R496 VGND.n128 VGND.n127 0.120292
R497 VGND.n101 VGND.n99 0.120292
R498 VGND.n108 VGND.n100 0.120292
R499 VGND.n77 VGND.n69 0.120292
R500 VGND.n72 VGND.n69 0.120292
R501 VGND.n72 VGND.n71 0.120292
R502 VGND.n162 VGND.n161 0.120292
R503 VGND.n150 VGND.n149 0.120292
R504 VGND.n149 VGND.n42 0.120292
R505 VGND.n145 VGND.n144 0.120292
R506 VGND.n55 VGND.n54 0.120292
R507 VGND.n54 VGND.n46 0.120292
R508 VGND.n48 VGND.n46 0.120292
R509 VGND.n162 VGND 0.0981562
R510 VGND.n78 VGND 0.09425
R511 VGND.n110 VGND 0.0881354
R512 VGND.n95 VGND.n94 0.0766574
R513 VGND.n223 VGND.n0 0.0766574
R514 VGND.n109 VGND.n108 0.0721146
R515 VGND.n156 VGND.n154 0.0708125
R516 VGND.n86 VGND 0.064875
R517 VGND.n90 VGND 0.064875
R518 VGND.n88 VGND 0.064875
R519 VGND.n225 VGND 0.064875
R520 VGND.n222 VGND 0.064875
R521 VGND VGND.n285 0.064875
R522 VGND.n92 VGND 0.063625
R523 VGND.n209 VGND 0.063625
R524 VGND.n112 VGND.n84 0.0616979
R525 VGND.n116 VGND 0.0603958
R526 VGND VGND.n65 0.0603958
R527 VGND.n135 VGND 0.0603958
R528 VGND VGND.n134 0.0603958
R529 VGND.n125 VGND 0.0603958
R530 VGND VGND.n59 0.0603958
R531 VGND.n101 VGND 0.0603958
R532 VGND.n71 VGND 0.0603958
R533 VGND VGND.n166 0.0603958
R534 VGND.n158 VGND 0.0603958
R535 VGND VGND.n157 0.0603958
R536 VGND.n154 VGND 0.0603958
R537 VGND.n151 VGND 0.0603958
R538 VGND VGND.n150 0.0603958
R539 VGND.n145 VGND 0.0603958
R540 VGND.n144 VGND 0.0603958
R541 VGND.n55 VGND 0.0603958
R542 VGND.n113 VGND.n112 0.0590938
R543 VGND VGND.n143 0.0590938
R544 VGND.n157 VGND.n156 0.0499792
R545 VGND.n109 VGND.n99 0.0486771
R546 VGND VGND.n35 0.0460729
R547 VGND.n98 VGND.n96 0.040297
R548 VGND.n167 VGND 0.0343542
R549 VGND.n135 VGND 0.0330521
R550 VGND.n158 VGND 0.0330521
R551 VGND VGND.n60 0.03175
R552 VGND.n113 VGND 0.0226354
R553 VGND.n118 VGND 0.0226354
R554 VGND VGND.n123 0.0226354
R555 VGND VGND.n124 0.0226354
R556 VGND.n127 VGND 0.0226354
R557 VGND.n100 VGND 0.0226354
R558 VGND.n166 VGND 0.0226354
R559 VGND.n161 VGND 0.0226354
R560 VGND.n151 VGND 0.0226354
R561 VGND VGND.n42 0.0226354
R562 VGND.n58 VGND 0.0226354
R563 VGND.n48 VGND 0.0226354
R564 VGND.n167 VGND.n35 0.0148229
R565 VGND.n78 VGND.n77 0.00440625
R566 VGND.n60 VGND.n59 0.00180208
R567 VGND.n143 VGND.n58 0.00180208
R568 select1.n10 select1.t8 327.99
R569 select1.n3 select1.t7 293.969
R570 select1.n6 select1.t4 256.07
R571 select1.n1 select1.t6 212.081
R572 select1.n0 select1.t3 212.081
R573 select1.n10 select1.t0 199.457
R574 select1.n2 select1.n1 182.929
R575 select1 select1.n3 154.065
R576 select1.n11 select1.n10 152
R577 select1.n7 select1.n6 152
R578 select1.n6 select1.t2 150.03
R579 select1.n1 select1.t5 139.78
R580 select1.n0 select1.t1 139.78
R581 select1.n3 select1.t9 138.338