* NGSPICE file created from muxtest_parax.ext - technology: sky130A

.subckt muxtest_parax SELECT0 RSEL2 VRES LADDEROUT RSEL1 RSEL0 SELECT1 OUT VDD VSS
X0 R7R8.t3 R6R7.t1 VSS.t50 sky130_fd_pr__res_high_po_1p41 l=1.75
X1 R4R5.t3 x1.x3.GP4.t4 x1.x5.A.t4 VDD.t34 sky130_fd_pr__pfet_01v8_lvt ad=0 pd=0 as=0 ps=0 w=10 l=0.35
**devattr s=116000,4116 d=116000,4116
X2 R1R2.t0 VRES.t0 VSS.t11 sky130_fd_pr__res_high_po_1p41 l=1.75
X3 x1.x4.A x1.x3.GN1.t2 R3R4.t1 VSS.t5 sky130_fd_pr__nfet_01v8_lvt ad=2.32 pd=16.58 as=0 ps=0 w=8 l=0.35
**devattr s=92800,3316 d=92800,3316
X4 VSS.t106 VDD.t152 VSS.t105 VSS.t104 sky130_fd_pr__nfet_01v8 ad=0 pd=0 as=0 ps=0 w=0.55 l=1.05
**devattr d=5720,324
X5 a_13269_n10181# SELECT0.t0 VDD.t104 VDD.t103 sky130_fd_pr__pfet_01v8_hvt ad=0.0567 pd=0.69 as=0 ps=0 w=0.42 l=0.15
**devattr s=6662,278 d=2268,138
X6 x1.x5.A.t11 RSEL2.t0 LADDEROUT.t9 VDD.t74 sky130_fd_pr__pfet_01v8_lvt ad=0 pd=0 as=0 ps=0 w=10 l=0.35
**devattr s=116000,4116 d=116000,4116
X7 a_13269_n10869# a_13269_n10693# a_13295_n10741# VSS.t135 sky130_fd_pr__nfet_01v8 ad=0.1092 pd=1.36 as=0.0504 ps=0.66 w=0.42 l=0.15
**devattr s=2016,132 d=4368,272
X8 a_4962_n3364# RSEL1.t0 a_5016_n3226# VSS.t44 sky130_fd_pr__nfet_01v8 ad=0.1176 pd=1.4 as=0.0567 ps=0.69 w=0.42 l=0.15
**devattr s=2268,138 d=4704,280
X9 x1.x5.A.t1 x1.x3.GN4.t2 R4R5.t0 VSS.t12 sky130_fd_pr__nfet_01v8_lvt ad=0 pd=0 as=0 ps=0 w=8 l=0.35
**devattr s=92800,3316 d=92800,3316
X10 R7R8.t7 x2.x2.GP4.t4 OUT.t13 VDD.t84 sky130_fd_pr__pfet_01v8_lvt ad=0 pd=0 as=0 ps=0 w=10 l=0.35
**devattr s=116000,4116 d=116000,4116
X11 VSS.t97 x1.x3.GN3 x1.x3.GP3 VSS.t96 sky130_fd_pr__nfet_01v8 ad=0 pd=0 as=0.08775 ps=0.92 w=0.65 l=0.15
**devattr s=3510,184 d=6760,364
X12 VSS.t85 x2.x2.GN1.t2 x2.x2.GP1.t1 VSS.t84 sky130_fd_pr__nfet_01v8 ad=0 pd=0 as=0 ps=0 w=0.65 l=0.15
**devattr s=3510,184 d=6760,364
X13 VSS.t3 RSEL1.t1 x1.x1.nSEL1 VSS.t2 sky130_fd_pr__nfet_01v8 ad=0 pd=0 as=0.08775 ps=0.92 w=0.65 l=0.15
**devattr s=3510,184 d=6760,364
X14 a_13295_n11293# SELECT0.t1 VSS.t103 VSS.t102 sky130_fd_pr__nfet_01v8 ad=0.0504 pd=0.66 as=0 ps=0 w=0.42 l=0.15
**devattr s=4052,198 d=2016,132
X15 VSS.t113 a_13269_n11421# x2.x2.GN2 VSS.t112 sky130_fd_pr__nfet_01v8 ad=0 pd=0 as=0.169 ps=1.82 w=0.65 l=0.15
**devattr s=6760,364 d=4052,198
X16 VDD.t129 x2.x2.GN4.t2 x2.x2.GP4.t1 VDD.t128 sky130_fd_pr__pfet_01v8_hvt ad=0 pd=0 as=0 ps=0 w=1 l=0.15
**devattr s=5400,254 d=10400,504
X17 x1.x5.A.t2 x1.x3.GN4.t3 R4R5.t1 VSS.t12 sky130_fd_pr__nfet_01v8_lvt ad=0 pd=0 as=0 ps=0 w=8 l=0.35
**devattr s=92800,3316 d=92800,3316
X18 VSS.t137 RSEL0.t0 x1.x1.nSEL0 VSS.t136 sky130_fd_pr__nfet_01v8 ad=0 pd=0 as=0.08775 ps=0.92 w=0.65 l=0.15
**devattr s=3510,184 d=6760,364
X19 x1.x3.GP1.t1 x1.x3.GN1.t3 VSS.t123 VSS.t122 sky130_fd_pr__nfet_01v8 ad=0 pd=0 as=0 ps=0 w=0.65 l=0.15
**devattr s=6760,364 d=3510,184
X20 VSS.t63 x1.x3.GN2 x1.x3.GP2.t1 VSS.t62 sky130_fd_pr__nfet_01v8 ad=0 pd=0 as=0 ps=0 w=0.65 l=0.15
**devattr s=3510,184 d=6760,364
X21 VRES.t6 x2.x2.GP2.t4 OUT.t6 VDD.t101 sky130_fd_pr__pfet_01v8_lvt ad=0 pd=0 as=0 ps=0 w=10 l=0.35
**devattr s=116000,4116 d=116000,4116
X22 VSS.t70 RSEL0.t1 a_4962_n3876# VSS.t69 sky130_fd_pr__nfet_01v8 ad=0 pd=0 as=0.1092 ps=1.36 w=0.42 l=0.15
**devattr s=4368,272 d=4368,272
X23 R1R2.t5 x1.x3.GP3 x1.x4.A VDD.t134 sky130_fd_pr__pfet_01v8_lvt ad=0 pd=0 as=2.9 ps=20.58 w=10 l=0.35
**devattr s=116000,4116 d=116000,4116
X24 a_4962_n4052# a_4962_n3876# a_4988_n3924# VSS.t144 sky130_fd_pr__nfet_01v8 ad=0.1092 pd=1.36 as=0.0504 ps=0.66 w=0.42 l=0.15
**devattr s=2016,132 d=4368,272
X25 VSS.t24 x1.x3.GN1.t4 x1.x3.GP1.t0 VSS.t23 sky130_fd_pr__nfet_01v8 ad=0 pd=0 as=0 ps=0 w=0.65 l=0.15
**devattr s=3510,184 d=6760,364
X26 x1.x5.A.t15 x1.x3.GN3 R5R6.t1 VSS.t92 sky130_fd_pr__nfet_01v8_lvt ad=0 pd=0 as=0 ps=0 w=8 l=0.35
**devattr s=92800,3316 d=92800,3316
X27 a_4962_n5020# x1.x1.nSEL1 VDD.t110 VDD.t109 sky130_fd_pr__pfet_01v8_hvt ad=0.0567 pd=0.69 as=0 ps=0 w=0.42 l=0.15
**devattr s=6662,278 d=2268,138
X28 LADDEROUT.t11 RSEL2.t1 x1.x4.A VSS.t79 sky130_fd_pr__nfet_01v8_lvt ad=0 pd=0 as=2.32 ps=16.58 w=8 l=0.35
**devattr s=92800,3316 d=92800,3316
X29 VRES.t2 x1.x3.GP4.t5 x1.x4.A VDD.t33 sky130_fd_pr__pfet_01v8_lvt ad=0 pd=0 as=2.9 ps=20.58 w=10 l=0.35
**devattr s=116000,4116 d=116000,4116
X30 a_4962_n4604# RSEL0.t2 VDD.t69 VDD.t68 sky130_fd_pr__pfet_01v8_hvt ad=0.0609 pd=0.71 as=0 ps=0 w=0.42 l=0.15
**devattr s=9116,348 d=2436,142
X31 a_4988_n4476# RSEL0.t3 VSS.t72 VSS.t71 sky130_fd_pr__nfet_01v8 ad=0.0504 pd=0.66 as=0 ps=0 w=0.42 l=0.15
**devattr s=4052,198 d=2016,132
X32 VSS.t27 a_4962_n4604# x1.x3.GN2 VSS.t26 sky130_fd_pr__nfet_01v8 ad=0 pd=0 as=0.169 ps=1.82 w=0.65 l=0.15
**devattr s=6760,364 d=4052,198
X33 VDD.t149 x1.x1.nSEL0 a_4962_n5020# VDD.t148 sky130_fd_pr__pfet_01v8_hvt ad=0 pd=0 as=0.0567 ps=0.69 w=0.42 l=0.15
**devattr s=2268,138 d=4704,280
X34 VSS.t14 a_13269_n10181# x2.x2.GN4.t0 VSS.t13 sky130_fd_pr__nfet_01v8 ad=0 pd=0 as=0 ps=0 w=0.65 l=0.15
**devattr s=7280,372 d=4472,208
X35 VDD.t23 VSS.t153 VDD.t22 VDD.t21 sky130_fd_pr__pfet_01v8_hvt ad=0 pd=0 as=0 ps=0 w=0.87 l=1.05
**devattr d=9048,452
X36 x1.x5.A.t9 x1.x3.GN2 R6R7.t3 VSS.t61 sky130_fd_pr__nfet_01v8_lvt ad=0 pd=0 as=0 ps=0 w=8 l=0.35
**devattr s=92800,3316 d=92800,3316
X37 R2R3.t4 x1.x3.GP2.t4 x1.x4.A VDD.t35 sky130_fd_pr__pfet_01v8_lvt ad=0 pd=0 as=2.9 ps=20.58 w=10 l=0.35
**devattr s=116000,4116 d=116000,4116
X38 R5R6.t4 x1.x3.GP3 x1.x5.A.t18 VDD.t135 sky130_fd_pr__pfet_01v8_lvt ad=0 pd=0 as=0 ps=0 w=10 l=0.35
**devattr s=116000,4116 d=116000,4116
X39 OUT.t15 x2.x2.GN3 R3R4.t8 VSS.t151 sky130_fd_pr__nfet_01v8_lvt ad=0 pd=0 as=0 ps=0 w=8 l=0.35
**devattr s=92800,3316 d=92800,3316
X40 x2.nselect2 VDD.t80 VDD.t82 VDD.t81 sky130_fd_pr__pfet_01v8_hvt ad=0.135 pd=1.27 as=0 ps=0 w=1 l=0.15
**devattr s=10400,504 d=5400,254
X41 R7R8.t8 x1.x3.GP1.t4 x1.x5.A.t16 VDD.t32 sky130_fd_pr__pfet_01v8_lvt ad=0 pd=0 as=0 ps=0 w=10 l=0.35
**devattr s=116000,4116 d=116000,4116
X42 VSS.t75 VDD.t153 VSS.t74 VSS.t73 sky130_fd_pr__nfet_01v8 ad=0 pd=0 as=0 ps=0 w=0.55 l=1.05
**devattr d=5720,324
X43 x2.x1.nSEL0 SELECT0.t2 VSS.t130 VSS.t129 sky130_fd_pr__nfet_01v8 ad=0.08775 pd=0.92 as=0 ps=0 w=0.65 l=0.15
**devattr s=6760,364 d=3510,184
X44 VSS.t140 SELECT1.t0 x2.x1.nSEL1 VSS.t139 sky130_fd_pr__nfet_01v8 ad=0 pd=0 as=0.08775 ps=0.92 w=0.65 l=0.15
**devattr s=3510,184 d=6760,364
X45 x1.x1.nSEL0 RSEL0.t4 VSS.t134 VSS.t133 sky130_fd_pr__nfet_01v8 ad=0.08775 pd=0.92 as=0 ps=0 w=0.65 l=0.15
**devattr s=6760,364 d=3510,184
X46 x1.x5.A.t5 x1.x3.GN1.t5 R7R8.t2 VSS.t25 sky130_fd_pr__nfet_01v8_lvt ad=0 pd=0 as=0 ps=0 w=8 l=0.35
**devattr s=92800,3316 d=92800,3316
X47 VSS.t78 VDD.t154 VSS.t77 VSS.t76 sky130_fd_pr__nfet_01v8 ad=0 pd=0 as=0 ps=0 w=0.55 l=1.05
**devattr d=5720,324
X48 x1.x3.GP4.t3 x1.x3.GN4.t4 VDD.t108 VDD.t107 sky130_fd_pr__pfet_01v8_hvt ad=0 pd=0 as=0 ps=0 w=1 l=0.15
**devattr s=10400,504 d=5400,254
X49 VDD.t20 VSS.t154 VDD.t19 VDD.t18 sky130_fd_pr__pfet_01v8_hvt ad=0 pd=0 as=0 ps=0 w=0.87 l=1.05
**devattr d=9048,452
X50 a_13269_n11837# x2.x1.nSEL0 a_13323_n11699# VSS.t10 sky130_fd_pr__nfet_01v8 ad=0.1176 pd=1.4 as=0.0567 ps=0.69 w=0.42 l=0.15
**devattr s=2268,138 d=4704,280
X51 x2.x2.GP4.t0 x2.x2.GN4.t3 VSS.t115 VSS.t114 sky130_fd_pr__nfet_01v8 ad=0 pd=0 as=0 ps=0 w=0.65 l=0.15
**devattr s=6760,364 d=3510,184
X52 x1.x4.A x1.x3.GN4.t5 VRES.t5 VSS.t51 sky130_fd_pr__nfet_01v8_lvt ad=2.32 pd=16.58 as=0 ps=0 w=8 l=0.35
**devattr s=92800,3316 d=92800,3316
X53 VSS.t47 a_4962_n3364# x1.x3.GN4.t0 VSS.t46 sky130_fd_pr__nfet_01v8 ad=0 pd=0 as=0 ps=0 w=0.65 l=0.15
**devattr s=7280,372 d=4472,208
X54 x1.x5.GN RSEL2.t2 VDD.t71 VDD.t70 sky130_fd_pr__pfet_01v8_hvt ad=0.135 pd=1.27 as=0 ps=0 w=1 l=0.15
**devattr s=10400,504 d=5400,254
X55 VSS.t132 SELECT0.t3 x2.x1.nSEL0 VSS.t131 sky130_fd_pr__nfet_01v8 ad=0 pd=0 as=0.08775 ps=0.92 w=0.65 l=0.15
**devattr s=3510,184 d=6760,364
X56 x2.x2.GP3 x2.x2.GN3 VDD.t147 VDD.t146 sky130_fd_pr__pfet_01v8_hvt ad=0.135 pd=1.27 as=0 ps=0 w=1 l=0.15
**devattr s=10400,504 d=5400,254
X57 VDD.t116 a_13269_n11421# x2.x2.GN2 VDD.t115 sky130_fd_pr__pfet_01v8_hvt ad=0 pd=0 as=0.26 ps=2.52 w=1 l=0.15
**devattr s=10400,504 d=9116,348
X58 x1.x3.GP3 x1.x3.GN3 VDD.t96 VDD.t95 sky130_fd_pr__pfet_01v8_hvt ad=0.135 pd=1.27 as=0 ps=0 w=1 l=0.15
**devattr s=10400,504 d=5400,254
X59 VDD.t61 x1.x3.GN4.t6 x1.x3.GP4.t0 VDD.t60 sky130_fd_pr__pfet_01v8_hvt ad=0 pd=0 as=0 ps=0 w=1 l=0.15
**devattr s=5400,254 d=10400,504
X60 x1.x1.nSEL1 RSEL1.t2 VDD.t118 VDD.t117 sky130_fd_pr__pfet_01v8_hvt ad=0.135 pd=1.27 as=0 ps=0 w=1 l=0.15
**devattr s=10400,504 d=5400,254
X61 LADDEROUT.t1 x2.x2.GP1.t4 OUT.t2 VDD.t83 sky130_fd_pr__pfet_01v8_lvt ad=0 pd=0 as=0 ps=0 w=10 l=0.35
**devattr s=116000,4116 d=116000,4116
X62 VDD.t73 RSEL2.t3 x1.x5.GN VDD.t72 sky130_fd_pr__pfet_01v8_hvt ad=0 pd=0 as=0.135 ps=1.27 w=1 l=0.15
**devattr s=5400,254 d=10400,504
X63 VSS.t32 VDD.t155 VSS.t31 VSS.t30 sky130_fd_pr__nfet_01v8 ad=0 pd=0 as=0 ps=0 w=0.55 l=1.05
**devattr d=5720,324
X64 x1.x4.A x1.x3.GN3 R1R2.t3 VSS.t95 sky130_fd_pr__nfet_01v8_lvt ad=2.32 pd=16.58 as=0 ps=0 w=8 l=0.35
**devattr s=92800,3316 d=92800,3316
X65 x1.x5.A.t7 RSEL2.t4 LADDEROUT.t8 VDD.t55 sky130_fd_pr__pfet_01v8_lvt ad=0 pd=0 as=0 ps=0 w=10 l=0.35
**devattr s=116000,4116 d=116000,4116
X66 VSS.t99 a_13269_n10869# x2.x2.GN3 VSS.t98 sky130_fd_pr__nfet_01v8 ad=0 pd=0 as=0.169 ps=1.82 w=0.65 l=0.15
**devattr s=6760,364 d=4052,198
X67 a_13269_n10869# SELECT1.t1 VDD.t25 VDD.t24 sky130_fd_pr__pfet_01v8_hvt ad=0.0609 pd=0.71 as=0 ps=0 w=0.42 l=0.15
**devattr s=9116,348 d=2436,142
X68 a_5016_n4882# x1.x1.nSEL1 VSS.t111 VSS.t110 sky130_fd_pr__nfet_01v8 ad=0.0567 pd=0.69 as=0 ps=0 w=0.42 l=0.15
**devattr s=4472,208 d=2268,138
X69 VDD.t17 VSS.t155 VDD.t16 VDD.t15 sky130_fd_pr__pfet_01v8_hvt ad=0 pd=0 as=0 ps=0 w=0.87 l=1.05
**devattr d=9048,452
X70 x2.x2.GP2.t3 x2.x2.GN2 VDD.t126 VDD.t125 sky130_fd_pr__pfet_01v8_hvt ad=0 pd=0 as=0 ps=0 w=1 l=0.15
**devattr s=10400,504 d=5400,254
X71 x1.x3.GP2.t3 x1.x3.GN2 VDD.t67 VDD.t66 sky130_fd_pr__pfet_01v8_hvt ad=0 pd=0 as=0 ps=0 w=1 l=0.15
**devattr s=10400,504 d=5400,254
X72 VDD.t14 VSS.t156 VDD.t13 VDD.t12 sky130_fd_pr__pfet_01v8_hvt ad=0 pd=0 as=0 ps=0 w=0.87 l=1.05
**devattr d=9048,452
X73 a_13269_n11837# x2.x1.nSEL1 VDD.t122 VDD.t121 sky130_fd_pr__pfet_01v8_hvt ad=0.0567 pd=0.69 as=0 ps=0 w=0.42 l=0.15
**devattr s=6662,278 d=2268,138
X74 VSS.t146 x2.x2.GN4.t4 x2.x2.GP4.t2 VSS.t145 sky130_fd_pr__nfet_01v8 ad=0 pd=0 as=0 ps=0 w=0.65 l=0.15
**devattr s=3510,184 d=6760,364
X75 x2.x2.GP1.t3 x2.x2.GN1.t3 VDD.t63 VDD.t62 sky130_fd_pr__pfet_01v8_hvt ad=0 pd=0 as=0 ps=0 w=1 l=0.15
**devattr s=10400,504 d=5400,254
X76 VDD.t11 VSS.t157 VDD.t10 VDD.t9 sky130_fd_pr__pfet_01v8_hvt ad=0 pd=0 as=0 ps=0 w=0.87 l=1.05
**devattr d=9048,452
X77 a_4962_n5020# x1.x1.nSEL0 a_5016_n4882# VSS.t152 sky130_fd_pr__nfet_01v8 ad=0.1176 pd=1.4 as=0.0567 ps=0.69 w=0.42 l=0.15
**devattr s=2268,138 d=4704,280
X78 R3R4.t9 x1.x3.GP1.t5 x1.x4.A VDD.t142 sky130_fd_pr__pfet_01v8_lvt ad=0 pd=0 as=2.9 ps=20.58 w=10 l=0.35
**devattr s=116000,4116 d=116000,4116
X79 VDD.t124 x2.x2.GN2 x2.x2.GP2.t2 VDD.t123 sky130_fd_pr__pfet_01v8_hvt ad=0 pd=0 as=0 ps=0 w=1 l=0.15
**devattr s=5400,254 d=10400,504
X80 R4R5.t4 R3R4.t5 VSS.t141 sky130_fd_pr__res_high_po_1p41 l=1.75
X81 VDD.t139 a_4962_n5020# x1.x3.GN1.t1 VDD.t138 sky130_fd_pr__pfet_01v8_hvt ad=0 pd=0 as=0 ps=0 w=1 l=0.15
**devattr s=19000,590 d=6662,278
X82 VSS.t9 SELECT1.t2 a_13269_n11245# VSS.t8 sky130_fd_pr__nfet_01v8 ad=0 pd=0 as=0.1092 ps=1.36 w=0.42 l=0.15
**devattr s=4368,272 d=4368,272
X83 a_4962_n3876# RSEL0.t5 VDD.t100 VDD.t99 sky130_fd_pr__pfet_01v8_hvt ad=0.1092 pd=1.36 as=0 ps=0 w=0.42 l=0.15
**devattr s=2856,152 d=4368,272
X84 VSS.t35 VDD.t156 VSS.t34 VSS.t33 sky130_fd_pr__nfet_01v8 ad=0 pd=0 as=0 ps=0 w=0.55 l=1.05
**devattr d=5720,324
X85 a_13269_n11421# a_13269_n11245# a_13295_n11293# VSS.t87 sky130_fd_pr__nfet_01v8 ad=0.1092 pd=1.36 as=0.0504 ps=0.66 w=0.42 l=0.15
**devattr s=2016,132 d=4368,272
X86 a_13269_n11245# SELECT1.t3 VDD.t50 VDD.t49 sky130_fd_pr__pfet_01v8_hvt ad=0.1092 pd=1.36 as=0 ps=0 w=0.42 l=0.15
**devattr s=2856,152 d=4368,272
X87 VSS.t108 R7R8.t6 VSS.t107 sky130_fd_pr__res_high_po_1p41 l=1.75
X88 VDD.t141 a_4962_n3876# a_4962_n4052# VDD.t140 sky130_fd_pr__pfet_01v8_hvt ad=0 pd=0 as=0.0609 ps=0.71 w=0.42 l=0.15
**devattr s=2436,142 d=2856,152
X89 OUT.t9 x2.x2.GN2 VRES.t8 VSS.t126 sky130_fd_pr__nfet_01v8_lvt ad=0 pd=0 as=0 ps=0 w=8 l=0.35
**devattr s=92800,3316 d=92800,3316
X90 VDD.t37 a_13269_n10181# x2.x2.GN4.t1 VDD.t36 sky130_fd_pr__pfet_01v8_hvt ad=0 pd=0 as=0 ps=0 w=1 l=0.15
**devattr s=19000,590 d=6662,278
X91 VDD.t88 a_13269_n11245# a_13269_n11421# VDD.t87 sky130_fd_pr__pfet_01v8_hvt ad=0 pd=0 as=0.0609 ps=0.71 w=0.42 l=0.15
**devattr s=2436,142 d=2856,152
X92 a_4962_n3364# RSEL0.t6 VDD.t31 VDD.t30 sky130_fd_pr__pfet_01v8_hvt ad=0.0567 pd=0.69 as=0 ps=0 w=0.42 l=0.15
**devattr s=6662,278 d=2268,138
X93 x1.x5.A.t8 x1.x3.GN2 R6R7.t2 VSS.t61 sky130_fd_pr__nfet_01v8_lvt ad=0 pd=0 as=0 ps=0 w=8 l=0.35
**devattr s=92800,3316 d=92800,3316
X94 OUT.t14 x2.x2.GN3 R3R4.t7 VSS.t151 sky130_fd_pr__nfet_01v8_lvt ad=0 pd=0 as=0 ps=0 w=8 l=0.35
**devattr s=92800,3316 d=92800,3316
X95 R2R3.t3 x1.x3.GP2.t5 x1.x4.A VDD.t35 sky130_fd_pr__pfet_01v8_lvt ad=0 pd=0 as=2.9 ps=20.58 w=10 l=0.35
**devattr s=116000,4116 d=116000,4116
X96 LADDEROUT.t10 RSEL2.t5 x1.x4.A VSS.t45 sky130_fd_pr__nfet_01v8_lvt ad=0 pd=0 as=2.32 ps=16.58 w=8 l=0.35
**devattr s=92800,3316 d=92800,3316
X97 VDD.t43 a_4962_n4052# x1.x3.GN3 VDD.t42 sky130_fd_pr__pfet_01v8_hvt ad=0 pd=0 as=0.26 ps=2.52 w=1 l=0.15
**devattr s=10400,504 d=9116,348
X98 R5R6.t3 x1.x3.GP3 x1.x5.A.t17 VDD.t135 sky130_fd_pr__pfet_01v8_lvt ad=0 pd=0 as=0 ps=0 w=10 l=0.35
**devattr s=116000,4116 d=116000,4116
X99 R7R8.t4 x2.x2.GP4.t5 OUT.t12 VDD.t84 sky130_fd_pr__pfet_01v8_lvt ad=0 pd=0 as=0 ps=0 w=10 l=0.35
**devattr s=116000,4116 d=116000,4116
X100 OUT.t4 x2.x2.GN4.t5 R7R8.t5 VSS.t4 sky130_fd_pr__nfet_01v8_lvt ad=0 pd=0 as=0 ps=0 w=8 l=0.35
**devattr s=92800,3316 d=92800,3316
X101 VSS.t19 VDD.t157 VSS.t18 VSS.t17 sky130_fd_pr__nfet_01v8 ad=0 pd=0 as=0 ps=0 w=0.55 l=1.05
**devattr d=5720,324
X102 LADDEROUT.t3 x1.x5.GN x1.x5.A.t13 VSS.t89 sky130_fd_pr__nfet_01v8_lvt ad=0 pd=0 as=0 ps=0 w=8 l=0.35
**devattr s=92800,3316 d=92800,3316
X103 VSS.t40 RSEL1.t3 a_4962_n4428# VSS.t39 sky130_fd_pr__nfet_01v8 ad=0 pd=0 as=0.1092 ps=1.36 w=0.42 l=0.15
**devattr s=4368,272 d=4368,272
X104 R3R4.t2 x2.x2.GP3 OUT.t11 VDD.t127 sky130_fd_pr__pfet_01v8_lvt ad=0 pd=0 as=0 ps=0 w=10 l=0.35
**devattr s=116000,4116 d=116000,4116
X105 VSS.t22 VDD.t158 VSS.t21 VSS.t20 sky130_fd_pr__nfet_01v8 ad=0 pd=0 as=0 ps=0 w=0.55 l=1.05
**devattr d=5720,324
X106 R1R2.t4 x1.x3.GP3 x1.x4.A VDD.t134 sky130_fd_pr__pfet_01v8_lvt ad=0 pd=0 as=2.9 ps=20.58 w=10 l=0.35
**devattr s=116000,4116 d=116000,4116
X107 a_4962_n4604# a_4962_n4428# a_4988_n4476# VSS.t86 sky130_fd_pr__nfet_01v8 ad=0.1092 pd=1.36 as=0.0504 ps=0.66 w=0.42 l=0.15
**devattr s=2016,132 d=4368,272
X108 x1.x5.A.t19 x1.x3.GN1.t6 R7R8.t9 VSS.t25 sky130_fd_pr__nfet_01v8_lvt ad=0 pd=0 as=0 ps=0 w=8 l=0.35
**devattr s=92800,3316 d=92800,3316
X109 x1.x4.A x1.x3.GN4.t7 VRES.t3 VSS.t51 sky130_fd_pr__nfet_01v8_lvt ad=2.32 pd=16.58 as=0 ps=0 w=8 l=0.35
**devattr s=92800,3316 d=92800,3316
X110 x2.nselect2 VDD.t159 VSS.t65 VSS.t64 sky130_fd_pr__nfet_01v8 ad=0.08775 pd=0.92 as=0 ps=0 w=0.65 l=0.15
**devattr s=6760,364 d=3510,184
X111 VSS.t91 a_13269_n11837# x2.x2.GN1.t0 VSS.t90 sky130_fd_pr__nfet_01v8 ad=0 pd=0 as=0 ps=0 w=0.65 l=0.15
**devattr s=7280,372 d=4472,208
X112 VDD.t79 VDD.t77 x2.nselect2 VDD.t78 sky130_fd_pr__pfet_01v8_hvt ad=0 pd=0 as=0.135 ps=1.27 w=1 l=0.15
**devattr s=5400,254 d=10400,504
X113 a_13323_n10043# SELECT0.t4 VSS.t16 VSS.t15 sky130_fd_pr__nfet_01v8 ad=0.0567 pd=0.69 as=0 ps=0 w=0.42 l=0.15
**devattr s=4472,208 d=2268,138
X114 x1.x4.A x1.x3.GN3 R1R2.t2 VSS.t95 sky130_fd_pr__nfet_01v8_lvt ad=2.32 pd=16.58 as=0 ps=0 w=8 l=0.35
**devattr s=92800,3316 d=92800,3316
X115 VDD.t98 a_13269_n10869# x2.x2.GN3 VDD.t97 sky130_fd_pr__pfet_01v8_hvt ad=0 pd=0 as=0.26 ps=2.52 w=1 l=0.15
**devattr s=10400,504 d=9116,348
X116 R6R7.t0 x1.x3.GP2.t6 x1.x5.A.t6 VDD.t44 sky130_fd_pr__pfet_01v8_lvt ad=0 pd=0 as=0 ps=0 w=10 l=0.35
**devattr s=116000,4116 d=116000,4116
X117 VRES.t4 x2.x2.GP2.t5 OUT.t3 VDD.t101 sky130_fd_pr__pfet_01v8_lvt ad=0 pd=0 as=0 ps=0 w=10 l=0.35
**devattr s=116000,4116 d=116000,4116
X118 x2.x1.nSEL1 SELECT1.t4 VDD.t106 VDD.t105 sky130_fd_pr__pfet_01v8_hvt ad=0.135 pd=1.27 as=0 ps=0 w=1 l=0.15
**devattr s=10400,504 d=5400,254
X119 x2.x2.GP3 x2.x2.GN3 VSS.t150 VSS.t149 sky130_fd_pr__nfet_01v8 ad=0.08775 pd=0.92 as=0 ps=0 w=0.65 l=0.15
**devattr s=6760,364 d=3510,184
X120 VDD.t8 VSS.t158 VDD.t7 VDD.t6 sky130_fd_pr__pfet_01v8_hvt ad=0 pd=0 as=0 ps=0 w=0.87 l=1.05
**devattr d=9048,452
X121 VDD.t145 x2.x2.GN3 x2.x2.GP3 VDD.t24 sky130_fd_pr__pfet_01v8_hvt ad=0 pd=0 as=0.135 ps=1.27 w=1 l=0.15
**devattr s=5400,254 d=10400,504
X122 x1.x4.A x1.x3.GN2 R2R3.t2 VSS.t60 sky130_fd_pr__nfet_01v8_lvt ad=2.32 pd=16.58 as=0 ps=0 w=8 l=0.35
**devattr s=92800,3316 d=92800,3316
X123 a_13295_n10741# SELECT1.t5 VSS.t1 VSS.t0 sky130_fd_pr__nfet_01v8 ad=0.0504 pd=0.66 as=0 ps=0 w=0.42 l=0.15
**devattr s=4052,198 d=2016,132
X124 R6R7.t5 R5R6.t2 VSS.t109 sky130_fd_pr__res_high_po_1p41 l=1.75
X125 VDD.t94 x1.x3.GN3 x1.x3.GP3 VDD.t93 sky130_fd_pr__pfet_01v8_hvt ad=0 pd=0 as=0.135 ps=1.27 w=1 l=0.15
**devattr s=5400,254 d=10400,504
X126 VDD.t144 RSEL1.t4 x1.x1.nSEL1 VDD.t143 sky130_fd_pr__pfet_01v8_hvt ad=0 pd=0 as=0.135 ps=1.27 w=1 l=0.15
**devattr s=5400,254 d=10400,504
X127 x1.x3.GP4.t1 x1.x3.GN4.t8 VSS.t81 VSS.t80 sky130_fd_pr__nfet_01v8 ad=0 pd=0 as=0 ps=0 w=0.65 l=0.15
**devattr s=6760,364 d=3510,184
X128 x1.x5.GN RSEL2.t6 VSS.t55 VSS.t54 sky130_fd_pr__nfet_01v8 ad=0.08775 pd=0.92 as=0 ps=0 w=0.65 l=0.15
**devattr s=6760,364 d=3510,184
X129 R3R4.t6 x1.x3.GP1.t6 x1.x4.A VDD.t142 sky130_fd_pr__pfet_01v8_lvt ad=0 pd=0 as=2.9 ps=20.58 w=10 l=0.35
**devattr s=116000,4116 d=116000,4116
X130 x2.x2.GP2.t1 x2.x2.GN2 VSS.t128 VSS.t127 sky130_fd_pr__nfet_01v8 ad=0 pd=0 as=0 ps=0 w=0.65 l=0.15
**devattr s=6760,364 d=3510,184
X131 R7R8.t1 x1.x3.GP1.t7 x1.x5.A.t0 VDD.t32 sky130_fd_pr__pfet_01v8_lvt ad=0 pd=0 as=0 ps=0 w=10 l=0.35
**devattr s=116000,4116 d=116000,4116
X132 a_5016_n3226# RSEL0.t7 VSS.t49 VSS.t48 sky130_fd_pr__nfet_01v8 ad=0.0567 pd=0.69 as=0 ps=0 w=0.42 l=0.15
**devattr s=4472,208 d=2268,138
X133 x1.x4.A x1.x3.GN2 R2R3.t1 VSS.t60 sky130_fd_pr__nfet_01v8_lvt ad=2.32 pd=16.58 as=0 ps=0 w=8 l=0.35
**devattr s=92800,3316 d=92800,3316
X134 R5R6.t5 R4R5.t5 VSS.t50 sky130_fd_pr__res_high_po_1p41 l=1.75
X135 VDD.t133 RSEL0.t8 x1.x1.nSEL0 VDD.t132 sky130_fd_pr__pfet_01v8_hvt ad=0 pd=0 as=0.135 ps=1.27 w=1 l=0.15
**devattr s=5400,254 d=10400,504
X136 OUT.t8 x2.x2.GN2 VRES.t7 VSS.t126 sky130_fd_pr__nfet_01v8_lvt ad=0 pd=0 as=0 ps=0 w=8 l=0.35
**devattr s=92800,3316 d=92800,3316
X137 x1.x3.GP3 x1.x3.GN3 VSS.t94 VSS.t93 sky130_fd_pr__nfet_01v8 ad=0.08775 pd=0.92 as=0 ps=0 w=0.65 l=0.15
**devattr s=6760,364 d=3510,184
X138 x2.x2.GP1.t0 x2.x2.GN1.t4 VSS.t117 VSS.t116 sky130_fd_pr__nfet_01v8 ad=0 pd=0 as=0 ps=0 w=0.65 l=0.15
**devattr s=6760,364 d=3510,184
X139 VSS.t83 x1.x3.GN4.t9 x1.x3.GP4.t2 VSS.t82 sky130_fd_pr__nfet_01v8 ad=0 pd=0 as=0 ps=0 w=0.65 l=0.15
**devattr s=3510,184 d=6760,364
X140 VSS.t57 RSEL2.t7 x1.x5.GN VSS.t56 sky130_fd_pr__nfet_01v8 ad=0 pd=0 as=0.08775 ps=0.92 w=0.65 l=0.15
**devattr s=3510,184 d=6760,364
X141 VDD.t65 x1.x3.GN2 x1.x3.GP2.t2 VDD.t64 sky130_fd_pr__pfet_01v8_hvt ad=0 pd=0 as=0 ps=0 w=1 l=0.15
**devattr s=5400,254 d=10400,504
X142 x1.x1.nSEL1 RSEL1.t5 VSS.t38 VSS.t37 sky130_fd_pr__nfet_01v8 ad=0.08775 pd=0.92 as=0 ps=0 w=0.65 l=0.15
**devattr s=6760,364 d=3510,184
X143 x1.x3.GP1.t3 x1.x3.GN1.t7 VDD.t137 VDD.t136 sky130_fd_pr__pfet_01v8_hvt ad=0 pd=0 as=0 ps=0 w=1 l=0.15
**devattr s=10400,504 d=5400,254
X144 R3R4.t3 x2.x2.GP3 OUT.t10 VDD.t127 sky130_fd_pr__pfet_01v8_lvt ad=0 pd=0 as=0 ps=0 w=10 l=0.35
**devattr s=116000,4116 d=116000,4116
X145 VSS.t125 x2.x2.GN2 x2.x2.GP2.t0 VSS.t124 sky130_fd_pr__nfet_01v8 ad=0 pd=0 as=0 ps=0 w=0.65 l=0.15
**devattr s=3510,184 d=6760,364
X146 VSS.t143 a_4962_n5020# x1.x3.GN1.t0 VSS.t142 sky130_fd_pr__nfet_01v8 ad=0 pd=0 as=0 ps=0 w=0.65 l=0.15
**devattr s=7280,372 d=4472,208
X147 R4R5.t2 x1.x3.GP4.t6 x1.x5.A.t3 VDD.t34 sky130_fd_pr__pfet_01v8_lvt ad=0 pd=0 as=0 ps=0 w=10 l=0.35
**devattr s=116000,4116 d=116000,4116
X148 VDD.t29 x2.x1.nSEL0 a_13269_n11837# VDD.t28 sky130_fd_pr__pfet_01v8_hvt ad=0 pd=0 as=0.0567 ps=0.69 w=0.42 l=0.15
**devattr s=2268,138 d=4704,280
X149 VDD.t52 x2.x2.GN1.t5 x2.x2.GP1.t2 VDD.t51 sky130_fd_pr__pfet_01v8_hvt ad=0 pd=0 as=0 ps=0 w=1 l=0.15
**devattr s=5400,254 d=10400,504
X150 a_4988_n3924# RSEL1.t6 VSS.t101 VSS.t100 sky130_fd_pr__nfet_01v8 ad=0.0504 pd=0.66 as=0 ps=0 w=0.42 l=0.15
**devattr s=4052,198 d=2016,132
X151 VDD.t27 x1.x3.GN1.t8 x1.x3.GP1.t2 VDD.t26 sky130_fd_pr__pfet_01v8_hvt ad=0 pd=0 as=0 ps=0 w=1 l=0.15
**devattr s=5400,254 d=10400,504
X152 x1.x4.A x1.x3.GN1.t9 R3R4.t0 VSS.t5 sky130_fd_pr__nfet_01v8_lvt ad=2.32 pd=16.58 as=0 ps=0 w=8 l=0.35
**devattr s=92800,3316 d=92800,3316
X153 a_4962_n4052# RSEL1.t7 VDD.t102 VDD.t93 sky130_fd_pr__pfet_01v8_hvt ad=0.0609 pd=0.71 as=0 ps=0 w=0.42 l=0.15
**devattr s=9116,348 d=2436,142
X154 x1.x3.GP2.t0 x1.x3.GN2 VSS.t59 VSS.t58 sky130_fd_pr__nfet_01v8 ad=0 pd=0 as=0 ps=0 w=0.65 l=0.15
**devattr s=6760,364 d=3510,184
X155 OUT.t0 x2.x2.GN4.t6 R7R8.t0 VSS.t4 sky130_fd_pr__nfet_01v8_lvt ad=0 pd=0 as=0 ps=0 w=8 l=0.35
**devattr s=92800,3316 d=92800,3316
X156 a_13269_n11421# SELECT0.t5 VDD.t39 VDD.t38 sky130_fd_pr__pfet_01v8_hvt ad=0.0609 pd=0.71 as=0 ps=0 w=0.42 l=0.15
**devattr s=9116,348 d=2436,142
X157 VSS.t42 SELECT0.t6 a_13269_n10693# VSS.t41 sky130_fd_pr__nfet_01v8 ad=0 pd=0 as=0.1092 ps=1.36 w=0.42 l=0.15
**devattr s=4368,272 d=4368,272
X158 a_13269_n10693# SELECT0.t7 VDD.t54 VDD.t53 sky130_fd_pr__pfet_01v8_hvt ad=0.1092 pd=1.36 as=0 ps=0 w=0.42 l=0.15
**devattr s=2856,152 d=4368,272
X159 VDD.t131 a_13269_n10693# a_13269_n10869# VDD.t130 sky130_fd_pr__pfet_01v8_hvt ad=0 pd=0 as=0.0609 ps=0.71 w=0.42 l=0.15
**devattr s=2436,142 d=2856,152
X160 VDD.t112 RSEL1.t8 a_4962_n3364# VDD.t111 sky130_fd_pr__pfet_01v8_hvt ad=0 pd=0 as=0.0567 ps=0.69 w=0.42 l=0.15
**devattr s=2268,138 d=4704,280
X161 a_13269_n10181# SELECT1.t6 a_13323_n10043# VSS.t118 sky130_fd_pr__nfet_01v8 ad=0.1176 pd=1.4 as=0.0567 ps=0.69 w=0.42 l=0.15
**devattr s=2268,138 d=4704,280
X162 VSS.t68 VDD.t160 VSS.t67 VSS.t66 sky130_fd_pr__nfet_01v8 ad=0 pd=0 as=0 ps=0 w=0.55 l=1.05
**devattr d=5720,324
X163 VSS.t29 a_4962_n4052# x1.x3.GN3 VSS.t28 sky130_fd_pr__nfet_01v8 ad=0 pd=0 as=0.169 ps=1.82 w=0.65 l=0.15
**devattr s=6760,364 d=4052,198
X164 VDD.t92 a_13269_n11837# x2.x2.GN1.t1 VDD.t91 sky130_fd_pr__pfet_01v8_hvt ad=0 pd=0 as=0 ps=0 w=1 l=0.15
**devattr s=19000,590 d=6662,278
X165 a_4962_n4428# RSEL1.t9 VDD.t59 VDD.t58 sky130_fd_pr__pfet_01v8_hvt ad=0.1092 pd=1.36 as=0 ps=0 w=0.42 l=0.15
**devattr s=2856,152 d=4368,272
X166 LADDEROUT.t6 x2.x2.GP1.t5 OUT.t5 VDD.t83 sky130_fd_pr__pfet_01v8_lvt ad=0 pd=0 as=0 ps=0 w=10 l=0.35
**devattr s=116000,4116 d=116000,4116
X167 VDD.t114 SELECT1.t7 a_13269_n10181# VDD.t113 sky130_fd_pr__pfet_01v8_hvt ad=0 pd=0 as=0.0567 ps=0.69 w=0.42 l=0.15
**devattr s=2268,138 d=4704,280
X168 VDD.t86 a_4962_n4428# a_4962_n4604# VDD.t85 sky130_fd_pr__pfet_01v8_hvt ad=0 pd=0 as=0.0609 ps=0.71 w=0.42 l=0.15
**devattr s=2436,142 d=2856,152
X169 VDD.t41 a_4962_n4604# x1.x3.GN2 VDD.t40 sky130_fd_pr__pfet_01v8_hvt ad=0 pd=0 as=0.26 ps=2.52 w=1 l=0.15
**devattr s=10400,504 d=9116,348
X170 x1.x5.A.t14 x1.x3.GN3 R5R6.t0 VSS.t92 sky130_fd_pr__nfet_01v8_lvt ad=0 pd=0 as=0 ps=0 w=8 l=0.35
**devattr s=92800,3316 d=92800,3316
X171 VDD.t5 VSS.t159 VDD.t4 VDD.t3 sky130_fd_pr__pfet_01v8_hvt ad=0 pd=0 as=0 ps=0 w=0.87 l=1.05
**devattr d=9048,452
X172 VRES.t1 x1.x3.GP4.t7 x1.x4.A VDD.t33 sky130_fd_pr__pfet_01v8_lvt ad=0 pd=0 as=2.9 ps=20.58 w=10 l=0.35
**devattr s=116000,4116 d=116000,4116
X173 R3R4.t4 R2R3.t5 VSS.t138 sky130_fd_pr__res_high_po_1p41 l=1.75
X174 R6R7.t4 x1.x3.GP2.t7 x1.x5.A.t10 VDD.t44 sky130_fd_pr__pfet_01v8_lvt ad=0 pd=0 as=0 ps=0 w=10 l=0.35
**devattr s=116000,4116 d=116000,4116
X175 VSS.t53 VDD.t161 x2.nselect2 VSS.t52 sky130_fd_pr__nfet_01v8 ad=0 pd=0 as=0.08775 ps=0.92 w=0.65 l=0.15
**devattr s=3510,184 d=6760,364
X176 x1.x1.nSEL0 RSEL0.t9 VDD.t76 VDD.t75 sky130_fd_pr__pfet_01v8_hvt ad=0.135 pd=1.27 as=0 ps=0 w=1 l=0.15
**devattr s=10400,504 d=5400,254
X177 VDD.t2 VSS.t160 VDD.t1 VDD.t0 sky130_fd_pr__pfet_01v8_hvt ad=0 pd=0 as=0 ps=0 w=0.87 l=1.05
**devattr d=9048,452
X178 OUT.t7 x2.x2.GN1.t6 LADDEROUT.t7 VSS.t119 sky130_fd_pr__nfet_01v8_lvt ad=0 pd=0 as=0 ps=0 w=8 l=0.35
**devattr s=92800,3316 d=92800,3316
X179 LADDEROUT.t2 x1.x5.GN x1.x5.A.t12 VSS.t88 sky130_fd_pr__nfet_01v8_lvt ad=0 pd=0 as=0 ps=0 w=8 l=0.35
**devattr s=92800,3316 d=92800,3316
X180 x2.x1.nSEL1 SELECT1.t8 VSS.t7 VSS.t6 sky130_fd_pr__nfet_01v8 ad=0.08775 pd=0.92 as=0 ps=0 w=0.65 l=0.15
**devattr s=6760,364 d=3510,184
X181 x1.x4.A x1.x5.GN LADDEROUT.t5 VDD.t90 sky130_fd_pr__pfet_01v8_lvt ad=2.9 pd=20.58 as=0 ps=0 w=10 l=0.35
**devattr s=116000,4116 d=116000,4116
X182 x2.x1.nSEL0 SELECT0.t8 VDD.t46 VDD.t45 sky130_fd_pr__pfet_01v8_hvt ad=0.135 pd=1.27 as=0 ps=0 w=1 l=0.15
**devattr s=10400,504 d=5400,254
X183 a_13323_n11699# x2.x1.nSEL1 VSS.t121 VSS.t120 sky130_fd_pr__nfet_01v8 ad=0.0567 pd=0.69 as=0 ps=0 w=0.42 l=0.15
**devattr s=4472,208 d=2268,138
X184 VDD.t120 SELECT1.t9 x2.x1.nSEL1 VDD.t119 sky130_fd_pr__pfet_01v8_hvt ad=0 pd=0 as=0.135 ps=1.27 w=1 l=0.15
**devattr s=5400,254 d=10400,504
X185 VSS.t148 x2.x2.GN3 x2.x2.GP3 VSS.t147 sky130_fd_pr__nfet_01v8 ad=0 pd=0 as=0.08775 ps=0.92 w=0.65 l=0.15
**devattr s=3510,184 d=6760,364
X186 x1.x4.A x1.x5.GN LADDEROUT.t4 VDD.t89 sky130_fd_pr__pfet_01v8_lvt ad=2.9 pd=20.58 as=0 ps=0 w=10 l=0.35
**devattr s=116000,4116 d=116000,4116
X187 OUT.t1 x2.x2.GN1.t7 LADDEROUT.t0 VSS.t36 sky130_fd_pr__nfet_01v8_lvt ad=0 pd=0 as=0 ps=0 w=8 l=0.35
**devattr s=92800,3316 d=92800,3316
X188 R2R3.t0 R1R2.t1 VSS.t43 sky130_fd_pr__res_high_po_1p41 l=1.75
X189 x2.x2.GP4.t3 x2.x2.GN4.t7 VDD.t151 VDD.t150 sky130_fd_pr__pfet_01v8_hvt ad=0 pd=0 as=0 ps=0 w=1 l=0.15
**devattr s=10400,504 d=5400,254
X190 VDD.t57 a_4962_n3364# x1.x3.GN4.t1 VDD.t56 sky130_fd_pr__pfet_01v8_hvt ad=0 pd=0 as=0 ps=0 w=1 l=0.15
**devattr s=19000,590 d=6662,278
X191 VDD.t48 SELECT0.t9 x2.x1.nSEL0 VDD.t47 sky130_fd_pr__pfet_01v8_hvt ad=0 pd=0 as=0.135 ps=1.27 w=1 l=0.15
**devattr s=5400,254 d=10400,504
R0 R7R8.n6 R7R8.t4 26.3998
R1 R7R8.n1 R7R8.t1 26.3998
R2 R7R8.n6 R7R8.t7 23.5483
R3 R7R8.n1 R7R8.t8 23.5483
R4 R7R8.n5 R7R8.t0 12.7127
R5 R7R8.n0 R7R8.t9 12.7127
R6 R7R8.n5 R7R8.t5 10.8578
R7 R7R8.n0 R7R8.t2 10.8578
R8 R7R8.n4 R7R8.t6 10.7774
R9 R7R8.n4 R7R8.t3 10.6159
R10 R7R8.n9 R7R8 8.70294
R11 R7R8.n7 R7R8.n6 3.12177
R12 R7R8.n2 R7R8.n1 3.12177
R13 R7R8.n7 R7R8.n5 1.81453
R14 R7R8.n2 R7R8.n0 1.81453
R15 R7R8.n8 R7R8.n7 1.1255
R16 R7R8.n3 R7R8.n2 1.1255
R17 R7R8.n10 R7R8 1.11113
R18 R7R8.n10 R7R8.n9 0.427375
R19 R7R8.n9 R7R8.n4 0.230945
R20 R7R8 R7R8.n3 0.148615
R21 R7R8 R7R8.n8 0.134513
R22 R7R8.n8 R7R8 0.0655
R23 R7R8.n3 R7R8 0.0655
R24 R7R8 R7R8.n10 0.008625
R25 R6R7.n2 R6R7.t0 26.3998
R26 R6R7.n2 R6R7.t4 23.5483
R27 R6R7.n0 R6R7.t5 17.5523
R28 R6R7.n1 R6R7.t2 12.7127
R29 R6R7.n1 R6R7.t3 10.8578
R30 R6R7.n0 R6R7.t1 10.5295
R31 R6R7.n3 R6R7.n2 3.12177
R32 R6R7.n3 R6R7.n1 1.81453
R33 R6R7.n4 R6R7.n3 1.1255
R34 R6R7 R6R7.n0 0.411443
R35 R6R7 R6R7.n4 0.138152
R36 R6R7.n4 R6R7 0.0655
R37 VSS.n173 VSS.n171 3.3198e+06
R38 VSS.n442 VSS.n441 2.3452e+06
R39 VSS.n173 VSS.n172 2.3386e+06
R40 VSS.n172 VSS.n47 2.1428e+06
R41 VSS.n398 VSS.n154 1.2298e+06
R42 VSS.n381 VSS.n367 1.19185e+06
R43 VSS.n441 VSS.t23 1.17724e+06
R44 VSS.n172 VSS.t114 1.17707e+06
R45 VSS.n397 VSS.n396 1.177e+06
R46 VSS.n398 VSS.n397 1.177e+06
R47 VSS.n465 VSS.n154 1.177e+06
R48 VSS.n171 VSS.n33 392333
R49 VSS.n382 VSS.n381 392333
R50 VSS.n441 VSS.n422 392333
R51 VSS.n171 VSS.n40 387200
R52 VSS.n396 VSS.n382 387200
R53 VSS.n441 VSS.n433 387200
R54 VSS.n173 VSS.n170 331554
R55 VSS.n367 VSS.n366 297447
R56 VSS.n304 VSS.n14 28658
R57 VSS.n466 VSS.n465 16580.8
R58 VSS.n462 VSS.n417 11744.7
R59 VSS.n458 VSS.n417 11744.7
R60 VSS.n462 VSS.n418 11744.7
R61 VSS.n458 VSS.n418 11744.7
R62 VSS.n416 VSS.n155 11744.7
R63 VSS.n412 VSS.n156 11744.7
R64 VSS.n416 VSS.n156 11744.7
R65 VSS.n400 VSS.n399 11744.7
R66 VSS.n163 VSS.n162 11744.7
R67 VSS.n399 VSS.n163 11744.7
R68 VSS.n169 VSS.n31 11744.7
R69 VSS.n536 VSS.n31 11744.7
R70 VSS.n169 VSS.n32 11744.7
R71 VSS.n536 VSS.n32 11744.7
R72 VSS.n533 VSS.n34 11744.7
R73 VSS.n529 VSS.n34 11744.7
R74 VSS.n533 VSS.n35 11744.7
R75 VSS.n529 VSS.n35 11744.7
R76 VSS.n526 VSS.n41 11744.7
R77 VSS.n522 VSS.n41 11744.7
R78 VSS.n526 VSS.n42 11744.7
R79 VSS.n522 VSS.n42 11744.7
R80 VSS.n512 VSS.n48 11744.7
R81 VSS.n512 VSS.n49 11744.7
R82 VSS.n519 VSS.n48 11744.7
R83 VSS.n519 VSS.n49 11744.7
R84 VSS.n473 VSS.n16 11744.7
R85 VSS.n556 VSS.n16 11744.7
R86 VSS.n473 VSS.n17 11744.7
R87 VSS.n556 VSS.n17 11744.7
R88 VSS.n567 VSS.n9 11744.7
R89 VSS.n562 VSS.n9 11744.7
R90 VSS.n562 VSS.n8 11744.7
R91 VSS.n567 VSS.n8 11744.7
R92 VSS.n455 VSS.n423 11744.7
R93 VSS.n451 VSS.n423 11744.7
R94 VSS.n455 VSS.n424 11744.7
R95 VSS.n451 VSS.n424 11744.7
R96 VSS.n444 VSS.n434 11744.7
R97 VSS.n444 VSS.n435 11744.7
R98 VSS.n448 VSS.n435 11744.7
R99 VSS.n448 VSS.n434 11744.7
R100 VSS.n151 VSS.n140 11744.7
R101 VSS.n146 VSS.n140 11744.7
R102 VSS.n151 VSS.n142 11744.7
R103 VSS.n146 VSS.n142 11744.7
R104 VSS.n380 VSS.n368 11744.7
R105 VSS.n376 VSS.n369 11744.7
R106 VSS.n380 VSS.n369 11744.7
R107 VSS.n395 VSS.n383 11744.7
R108 VSS.n395 VSS.n384 11744.7
R109 VSS.n391 VSS.n383 11744.7
R110 VSS.n558 VSS.n15 9851.18
R111 VSS.n174 VSS.n153 7320.68
R112 VSS.n152 VSS.t88 7065.1
R113 VSS.t89 VSS.n15 7065.1
R114 VSS.n141 VSS.t88 6710.74
R115 VSS.n141 VSS.t89 6710.74
R116 VSS.n457 VSS.n456 6049.9
R117 VSS.n443 VSS.n13 6004.3