* NGSPICE file created from ringtest_parax.ext - technology: sky130A

.subckt ringtest_parax enable_ring select0 mux_out enable_counter select1 VSS VDD
X0 a_17405_n2032# x3.x1.nSEL1 VDD VDD sky130_fd_pr__pfet_01v8_hvt ad=0.0567 pd=0.69 as=0.16655 ps=1.39 w=0.42 l=0.15
X1 VDD VSS.t967 VDD VDD sky130_fd_pr__pfet_01v8_hvt ad=0.2262 pd=2.26 as=118.35755 ps=1.08236k w=0.87 l=1.05
X2 VSS.t5 x4.clknet_1_0__leaf_clk.t32 a_23339_n9259# VSS.t4 sky130_fd_pr__nfet_01v8 ad=0.0567 pd=0.69 as=0.1092 ps=1.36 w=0.42 l=0.15
X3 a_21119_n968.t0 ring_out.t10 VDD VDD sky130_fd_pr__pfet_01v8 ad=2.61 pd=18.58 as=2.61 ps=18.58 w=9 l=0.15
X4 a_28197_n9259# a_28031_n9259# VSS.t177 VSS.t176 sky130_fd_pr__nfet_01v8 ad=0.1092 pd=1.36 as=0.0567 ps=0.69 w=0.42 l=0.15
X5 x3.x2.GP4.t3 x3.x2.GN4 VSS.t241 VSS.t240 sky130_fd_pr__nfet_01v8 ad=0.08775 pd=0.92 as=0.169 ps=1.82 w=0.65 l=0.15
X6 a_29021_n8337# a_28031_n8709# a_28895_n8715# VSS.t901 sky130_fd_pr__nfet_01v8 ad=0.066 pd=0.745 as=0.0684 ps=0.74 w=0.36 l=0.15
X7 VSS.t672 VDD VSS.t671 VSS.t670 sky130_fd_pr__nfet_01v8 ad=0.143 pd=1.62 as=0 ps=0 w=0.55 l=1.97
X8 VDD x4.clknet_1_0__leaf_clk.t33 a_23339_n9259# VDD sky130_fd_pr__pfet_01v8_hvt ad=0.0864 pd=0.91 as=0.1664 ps=1.8 w=0.64 l=0.15
X9 VDD VSS.t968 VDD VDD sky130_fd_pr__pfet_01v8_hvt ad=0.2262 pd=2.26 as=0 ps=0 w=0.87 l=4.73
X10 VDD VSS.t969 VDD VDD sky130_fd_pr__pfet_01v8_hvt ad=0.2262 pd=2.26 as=0 ps=0 w=0.87 l=4.73
X11 a_26295_n7249# a_26159_n7409# a_25875_n7395# VDD sky130_fd_pr__pfet_01v8_hvt ad=0.1095 pd=1.075 as=0.0567 ps=0.69 w=0.42 l=0.15
X12 VSS.t669 VDD VSS.t668 VSS.t373 sky130_fd_pr__nfet_01v8 ad=0.143 pd=1.62 as=0 ps=0 w=0.55 l=0.59
X13 a_28197_n9259# a_28031_n9259# VDD VDD sky130_fd_pr__pfet_01v8_hvt ad=0.1664 pd=1.8 as=0.0864 ps=0.91 w=0.64 l=0.15
X14 VSS.t667 VDD VSS.t666 VSS.t639 sky130_fd_pr__nfet_01v8 ad=0.143 pd=1.62 as=0 ps=0 w=0.55 l=0.59
X15 x4._13_ x4._11_.t4 VSS.t336 VSS.t335 sky130_fd_pr__nfet_01v8 ad=0.08775 pd=0.92 as=0.169 ps=1.82 w=0.65 l=0.15
X16 a_24053_n8337# a_23063_n8709# a_23927_n8715# VSS.t160 sky130_fd_pr__nfet_01v8 ad=0.066 pd=0.745 as=0.0684 ps=0.74 w=0.36 l=0.15
X17 VDD x1.sky130_fd_sc_hd__inv_2_12.A x1.sky130_fd_sc_hd__inv_2_13.A VDD sky130_fd_pr__pfet_01v8_hvt ad=0.26 pd=2.52 as=0.135 ps=1.27 w=1 l=0.15
X18 VDD x4.net4 a_23421_n7921# VDD sky130_fd_pr__pfet_01v8_hvt ad=0.26 pd=2.52 as=0.105 ps=1.21 w=1 l=0.15
X19 VSS.t949 a_26798_n8741# a_26756_n8337# VSS.t948 sky130_fd_pr__nfet_01v8 ad=0.12095 pd=1.085 as=0.0696 ps=0.765 w=0.42 l=0.15
X20 drv_out.t19 a_21119_n968.t2 VSS.t136 VSS.t135 sky130_fd_pr__nfet_01v8 ad=0.495 pd=3.33 as=0.495 ps=3.33 w=3 l=0.15
X21 VDD VSS.t970 VDD VDD sky130_fd_pr__pfet_01v8_hvt ad=0.2262 pd=2.26 as=0 ps=0 w=0.87 l=1.05
X22 drv_out.t1 x3.x2.GN2 mux_out.t11 VSS.t749 sky130_fd_pr__nfet_01v8_lvt ad=2.32 pd=16.58 as=2.32 ps=16.58 w=8 l=0.35
X23 a_23633_n4541# a_23295_n4755# VDD VDD sky130_fd_pr__pfet_01v8_hvt ad=0.0882 pd=0.84 as=0.1113 ps=1.37 w=0.42 l=0.15
X24 a_26159_n7409# x4.clknet_1_1__leaf_clk.t32 VDD VDD sky130_fd_pr__pfet_01v8_hvt ad=0.1664 pd=1.8 as=0.0864 ps=0.91 w=0.64 l=0.15
X25 VSS.t116 a_25709_n7109# x4.clknet_0_clk.t31 VSS.t115 sky130_fd_pr__nfet_01v8 ad=0.0588 pd=0.7 as=0.0588 ps=0.7 w=0.42 l=0.15
X26 VDD VSS.t971 VDD VDD sky130_fd_pr__pfet_01v8_hvt ad=0.2262 pd=2.26 as=0 ps=0 w=0.87 l=4.73
X27 VDD a_23851_n9829# x4._03_ VDD sky130_fd_pr__pfet_01v8_hvt ad=0.18575 pd=1.415 as=0.26 ps=2.52 w=1 l=0.15
X28 VSS.t665 VDD VSS.t664 VSS.t663 sky130_fd_pr__nfet_01v8 ad=0.143 pd=1.62 as=0 ps=0 w=0.55 l=1.97
X29 a_24287_n8893# a_23505_n9259# a_24203_n8893# VDD sky130_fd_pr__pfet_01v8_hvt ad=0.0882 pd=0.84 as=0.0567 ps=0.69 w=0.42 l=0.15
X30 VSS.t662 VDD VSS.t661 VSS.t660 sky130_fd_pr__nfet_01v8 ad=0.143 pd=1.62 as=0 ps=0 w=0.55 l=2.89
X31 VDD VSS.t972 VDD VDD sky130_fd_pr__pfet_01v8_hvt ad=0.2262 pd=2.26 as=0 ps=0 w=0.87 l=4.73
X32 VSS.t659 VDD VSS.t658 VSS.t657 sky130_fd_pr__nfet_01v8 ad=0.143 pd=1.62 as=0 ps=0 w=0.55 l=4.73
X33 VDD a_25709_n7109# x4.clknet_0_clk.t15 VDD sky130_fd_pr__pfet_01v8_hvt ad=0.14 pd=1.28 as=0.14 ps=1.28 w=1 l=0.15
X34 a_28197_n8709# a_28031_n8709# VSS.t900 VSS.t899 sky130_fd_pr__nfet_01v8 ad=0.1092 pd=1.36 as=0.0567 ps=0.69 w=0.42 l=0.15
X35 x4.counter[9] a_29319_n10347# VSS.t962 VSS.t961 sky130_fd_pr__nfet_01v8 ad=0.1352 pd=1.56 as=0.0754 ps=0.81 w=0.52 l=0.15
X36 VDD x1.sky130_fd_sc_hd__inv_2_13.A x1.sky130_fd_sc_hd__inv_2_14.A VDD sky130_fd_pr__pfet_01v8_hvt ad=0.26 pd=2.52 as=0.135 ps=1.27 w=1 l=0.15
X37 a_27755_n7261# x4._11_.t5 VDD VDD sky130_fd_pr__pfet_01v8_hvt ad=0.0588 pd=0.7 as=0.0777 ps=0.79 w=0.42 l=0.15
X38 VSS.t725 a_27423_n8893# a_27591_n8991# VSS.t724 sky130_fd_pr__nfet_01v8 ad=0.08775 pd=0.92 as=0.169 ps=1.82 w=0.65 l=0.15
X39 VSS.t173 a_24095_n8741# a_24053_n8337# VSS.t172 sky130_fd_pr__nfet_01v8 ad=0.1092 pd=1.36 as=0.066 ps=0.745 w=0.42 l=0.15
X40 VSS.t656 VDD VSS.t655 VSS.t654 sky130_fd_pr__nfet_01v8 ad=0.143 pd=1.62 as=0 ps=0 w=0.55 l=1.05
X41 a_28638_n9147# a_28470_n8893# VDD VDD sky130_fd_pr__pfet_01v8_hvt ad=0.1095 pd=1.075 as=0.178875 ps=1.26 w=0.75 l=0.15
X42 VDD VSS.t973 VDD VDD sky130_fd_pr__pfet_01v8_hvt ad=0.2262 pd=2.26 as=0 ps=0 w=0.87 l=1.05
X43 x4._17_ a_27755_n7261# VDD VDD sky130_fd_pr__pfet_01v8_hvt ad=0.26 pd=2.52 as=0.31245 ps=1.68 w=1 l=0.15
X44 VDD a_29063_n8991# a_28979_n8893# VDD sky130_fd_pr__pfet_01v8_hvt ad=0.1113 pd=1.37 as=0.0882 ps=0.84 w=0.42 l=0.15
X45 x4.net4 a_24095_n8741# VDD VDD sky130_fd_pr__pfet_01v8_hvt ad=0.26 pd=2.52 as=0.135 ps=1.27 w=1 l=0.15
X46 VSS.t193 x1.sky130_fd_sc_hd__inv_2_16.A x1.sky130_fd_sc_hd__inv_2_17.A VSS.t26 sky130_fd_pr__nfet_01v8 ad=0.169 pd=1.82 as=0.08775 ps=0.92 w=0.65 l=0.15
X47 VDD VSS.t974 VDD VDD sky130_fd_pr__pfet_01v8_hvt ad=0.2262 pd=2.26 as=0 ps=0 w=0.87 l=4.73
X48 VDD x4.net2.t2 a_23615_n5995# VDD sky130_fd_pr__pfet_01v8_hvt ad=0.0567 pd=0.69 as=0.1092 ps=1.36 w=0.42 l=0.15
X49 VDD a_24203_n8893# a_24371_n8991# VDD sky130_fd_pr__pfet_01v8_hvt ad=0.135 pd=1.27 as=0.27 ps=2.54 w=1 l=0.15
X50 VDD a_23225_n7109# x4.clknet_1_0__leaf_clk.t15 VDD sky130_fd_pr__pfet_01v8_hvt ad=0.14 pd=1.28 as=0.14 ps=1.28 w=1 l=0.15
X51 a_18409_n2290# select1.t0 VDD VDD sky130_fd_pr__pfet_01v8_hvt ad=0.0609 pd=0.71 as=0.2279 ps=1.74 w=0.42 l=0.15
X52 x4.net11 a_29063_n8991# VDD VDD sky130_fd_pr__pfet_01v8_hvt ad=0.26 pd=2.52 as=0.135 ps=1.27 w=1 l=0.15
X53 a_23697_n5995# x4.net2.t3 a_23615_n5995# VSS.t916 sky130_fd_pr__nfet_01v8 ad=0.0441 pd=0.63 as=0.1092 ps=1.36 w=0.42 l=0.15
X54 VSS.t653 VDD VSS.t652 VSS.t651 sky130_fd_pr__nfet_01v8 ad=0.143 pd=1.62 as=0 ps=0 w=0.55 l=4.73
X55 x1.sky130_fd_sc_hd__inv_2_2.A x1.sky130_fd_sc_hd__inv_2_8.Y VDD VDD sky130_fd_pr__pfet_01v8_hvt ad=0.135 pd=1.27 as=0.26 ps=2.52 w=1 l=0.15
X56 x1.sky130_fd_sc_hd__inv_2_2.A x1.sky130_fd_sc_hd__inv_2_8.Y VSS.t920 VSS.t750 sky130_fd_pr__nfet_01v8 ad=0.08775 pd=0.92 as=0.169 ps=1.82 w=0.65 l=0.15
X57 x4.net6.t1 a_24647_n7903# VSS.t154 VSS.t153 sky130_fd_pr__nfet_01v8 ad=0.169 pd=1.82 as=0.08775 ps=0.92 w=0.65 l=0.15
X58 VSS.t918 x4.net2.t4 a_23255_n4363# VSS.t917 sky130_fd_pr__nfet_01v8 ad=0.08775 pd=0.92 as=0.08775 ps=0.92 w=0.65 l=0.15
X59 x4._06_ a_25834_n7921# VDD VDD sky130_fd_pr__pfet_01v8_hvt ad=0.26 pd=2.52 as=0.18575 ps=1.415 w=1 l=0.15
X60 a_22837_n10182# x4.net2.t5 VDD VDD sky130_fd_pr__pfet_01v8_hvt ad=0.2054 pd=2.1 as=0.11455 ps=1.08 w=0.79 l=0.15
X61 VSS.t650 VDD VSS.t649 VSS.t648 sky130_fd_pr__nfet_01v8 ad=0.143 pd=1.62 as=0 ps=0 w=0.55 l=4.73
X62 VDD a_28895_n8715# a_29063_n8741# VDD sky130_fd_pr__pfet_01v8_hvt ad=0.135 pd=1.27 as=0.27 ps=2.54 w=1 l=0.15
X63 VSS.t647 VDD VSS.t646 VSS.t645 sky130_fd_pr__nfet_01v8 ad=0.143 pd=1.62 as=0 ps=0 w=0.55 l=1.97
X64 a_23295_n5219# a_23391_n5219# VDD VDD sky130_fd_pr__pfet_01v8_hvt ad=0.27 pd=2.54 as=0.135 ps=1.27 w=1 l=0.15
X65 a_25875_n7395# a_26159_n7409# a_26094_n7261# VSS.t74 sky130_fd_pr__nfet_01v8 ad=0.0684 pd=0.74 as=0.066 ps=0.745 w=0.36 l=0.15
X66 VDD VSS.t975 VDD VDD sky130_fd_pr__pfet_01v8_hvt ad=0.2262 pd=2.26 as=0 ps=0 w=0.87 l=0.59
X67 VSS.t114 a_25709_n7109# x4.clknet_0_clk.t30 VSS.t113 sky130_fd_pr__nfet_01v8 ad=0.0588 pd=0.7 as=0.0588 ps=0.7 w=0.42 l=0.15
X68 VSS.t941 select0.t0 a_18585_n1958# VSS.t940 sky130_fd_pr__nfet_01v8 ad=0.1092 pd=1.36 as=0.1092 ps=1.36 w=0.42 l=0.15
X69 VDD a_18033_n1958# a_17857_n2290# VDD sky130_fd_pr__pfet_01v8_hvt ad=0.0714 pd=0.76 as=0.0609 ps=0.71 w=0.42 l=0.15
X70 VDD VSS.t976 VDD VDD sky130_fd_pr__pfet_01v8_hvt ad=0.2262 pd=2.26 as=0 ps=0 w=0.87 l=0.59
X71 drv_out.t18 a_21119_n968.t3 VSS.t138 VSS.t137 sky130_fd_pr__nfet_01v8 ad=0.495 pd=3.33 as=0.495 ps=3.33 w=3 l=0.15
X72 VDD VSS.t977 VDD VDD sky130_fd_pr__pfet_01v8_hvt ad=0.2262 pd=2.26 as=0 ps=0 w=0.87 l=0.59
X73 x4.clknet_0_clk.t14 a_25709_n7109# VDD VDD sky130_fd_pr__pfet_01v8_hvt ad=0.14 pd=1.28 as=0.265 ps=2.53 w=1 l=0.15
X74 x4.clknet_0_clk.t13 a_25709_n7109# VDD VDD sky130_fd_pr__pfet_01v8_hvt ad=0.14 pd=1.28 as=0.14 ps=1.28 w=1 l=0.15
X75 VSS.t73 a_26159_n7409# a_26166_n7505# VSS.t72 sky130_fd_pr__nfet_01v8 ad=0.0567 pd=0.69 as=0.1092 ps=1.36 w=0.42 l=0.15
X76 a_28999_n7408# x4._25_ VDD VDD sky130_fd_pr__pfet_01v8_hvt ad=0.2054 pd=2.1 as=0.11455 ps=1.08 w=0.79 l=0.15
X77 VSS.t768 select1.t1 x3.x1.nSEL1 VSS.t767 sky130_fd_pr__nfet_01v8 ad=0.169 pd=1.82 as=0.08775 ps=0.92 w=0.65 l=0.15
X78 VSS.t209 a_23941_n3056# x4.net1 VSS.t208 sky130_fd_pr__nfet_01v8 ad=0.0754 pd=0.81 as=0.1352 ps=1.56 w=0.52 l=0.15
X79 VSS.t343 a_24371_n8991# a_24329_n9259# VSS.t342 sky130_fd_pr__nfet_01v8 ad=0.1092 pd=1.36 as=0.066 ps=0.745 w=0.42 l=0.15
X80 a_26094_n7261# a_25779_n7395# VSS.t805 VSS.t804 sky130_fd_pr__nfet_01v8 ad=0.066 pd=0.745 as=0.1092 ps=1.36 w=0.42 l=0.15
X81 a_28725_n10182# x4.net9 VSS.t21 VSS.t20 sky130_fd_pr__nfet_01v8 ad=0.1352 pd=1.56 as=0.0754 ps=0.81 w=0.52 l=0.15
X82 x4._01_ x4._12_ VSS.t211 VSS.t210 sky130_fd_pr__nfet_01v8 ad=0.08775 pd=0.92 as=0.169 ps=1.82 w=0.65 l=0.15
X83 VSS.t58 a_26147_n9107# x4._20_ VSS.t57 sky130_fd_pr__nfet_01v8 ad=0.13165 pd=1.14 as=0.169 ps=1.82 w=0.65 l=0.15
X84 VDD a_25709_n7109# x4.clknet_0_clk.t12 VDD sky130_fd_pr__pfet_01v8_hvt ad=0.14 pd=1.28 as=0.14 ps=1.28 w=1 l=0.15
X85 VSS.t706 a_23225_n7109# x4.clknet_1_0__leaf_clk.t31 VSS.t705 sky130_fd_pr__nfet_01v8 ad=0.0588 pd=0.7 as=0.0588 ps=0.7 w=0.42 l=0.15
X86 VDD VSS.t978 VDD VDD sky130_fd_pr__pfet_01v8_hvt ad=0.2262 pd=2.26 as=0 ps=0 w=0.87 l=0.59
X87 a_28470_n8893# a_28197_n9259# a_28385_n9259# VDD sky130_fd_pr__pfet_01v8_hvt ad=0.06825 pd=0.745 as=0.05775 ps=0.695 w=0.42 l=0.15
X88 a_27423_n8893# a_26559_n9259# a_27166_n9147# VDD sky130_fd_pr__pfet_01v8_hvt ad=0.0567 pd=0.69 as=0.1095 ps=1.075 w=0.42 l=0.15
X89 VSS.t644 VDD VSS.t643 VSS.t642 sky130_fd_pr__nfet_01v8 ad=0.143 pd=1.62 as=0 ps=0 w=0.55 l=4.73
X90 VDD x4.clknet_0_clk.t32 a_23225_n7109# VDD sky130_fd_pr__pfet_01v8_hvt ad=0.265 pd=2.53 as=0.14 ps=1.28 w=1 l=0.15
X91 a_27093_n8893# a_26559_n9259# a_26998_n8893# VDD sky130_fd_pr__pfet_01v8_hvt ad=0.07665 pd=0.785 as=0.06825 ps=0.745 w=0.42 l=0.15
X92 VDD a_27194_n8171# x4.clknet_1_1__leaf_clk.t15 VDD sky130_fd_pr__pfet_01v8_hvt ad=0.14 pd=1.28 as=0.14 ps=1.28 w=1 l=0.15
X93 a_23769_n5995# x4.net3.t2 a_23697_n5995# VSS.t878 sky130_fd_pr__nfet_01v8 ad=0.0441 pd=0.63 as=0.0441 ps=0.63 w=0.42 l=0.15
X94 a_24605_n8171# a_23615_n8171# a_24479_n7805# VSS.t52 sky130_fd_pr__nfet_01v8 ad=0.066 pd=0.745 as=0.0684 ps=0.74 w=0.36 l=0.15
X95 VDD a_26147_n9107# x4._20_ VDD sky130_fd_pr__pfet_01v8_hvt ad=0.142225 pd=1.335 as=0.26 ps=2.52 w=1 l=0.15
X96 VSS.t641 VDD VSS.t640 VSS.t639 sky130_fd_pr__nfet_01v8 ad=0.143 pd=1.62 as=0 ps=0 w=0.55 l=0.59
X97 a_24525_n5745# x4._12_ x4._01_ VDD sky130_fd_pr__pfet_01v8_hvt ad=0.105 pd=1.21 as=0.26 ps=2.52 w=1 l=0.15
X98 x4.net8 a_27223_n8741# VDD VDD sky130_fd_pr__pfet_01v8_hvt ad=0.26 pd=2.52 as=0.135 ps=1.27 w=1 l=0.15
X99 counter7.t3 x3.x2.GN4 mux_out.t2 VSS.t239 sky130_fd_pr__nfet_01v8_lvt ad=2.32 pd=16.58 as=2.32 ps=16.58 w=8 l=0.35
X100 VSS.t638 VDD VSS.t637 VSS.t636 sky130_fd_pr__nfet_01v8 ad=0.143 pd=1.62 as=0 ps=0 w=0.55 l=4.73
X101 VSS.t187 a_26366_n7350# a_26295_n7249# VSS.t186 sky130_fd_pr__nfet_01v8 ad=0.12095 pd=1.085 as=0.0989 ps=0.995 w=0.64 l=0.15
X102 x4.clknet_1_1__leaf_clk.t14 a_27194_n8171# VDD VDD sky130_fd_pr__pfet_01v8_hvt ad=0.14 pd=1.28 as=0.14 ps=1.28 w=1 l=0.15
X103 VDD a_27166_n9147# a_27093_n8893# VDD sky130_fd_pr__pfet_01v8_hvt ad=0.178875 pd=1.26 as=0.07665 ps=0.785 w=0.42 l=0.15
X104 a_27139_n8715# a_26357_n8709# a_27055_n8715# VDD sky130_fd_pr__pfet_01v8_hvt ad=0.0882 pd=0.84 as=0.0567 ps=0.69 w=0.42 l=0.15
X105 VDD VSS.t979 VDD VDD sky130_fd_pr__pfet_01v8_hvt ad=0.2262 pd=2.26 as=0 ps=0 w=0.87 l=0.59
X106 a_26885_n10182# x4.net7 VSS.t818 VSS.t817 sky130_fd_pr__nfet_01v8 ad=0.1352 pd=1.56 as=0.0754 ps=0.81 w=0.52 l=0.15
X107 VSS.t635 VDD VSS.t634 VSS.t633 sky130_fd_pr__nfet_01v8 ad=0.143 pd=1.62 as=0 ps=0 w=0.55 l=1.97
X108 VDD VSS.t980 VDD VDD sky130_fd_pr__pfet_01v8_hvt ad=0.2262 pd=2.26 as=0 ps=0 w=0.87 l=0.59
X109 x4.clknet_0_clk.t29 a_25709_n7109# VSS.t112 VSS.t111 sky130_fd_pr__nfet_01v8 ad=0.0588 pd=0.7 as=0.1113 ps=1.37 w=0.42 l=0.15
X110 x4.clknet_0_clk.t28 a_25709_n7109# VSS.t110 VSS.t109 sky130_fd_pr__nfet_01v8 ad=0.0588 pd=0.7 as=0.0588 ps=0.7 w=0.42 l=0.15
X111 VSS.t295 a_24479_n7805# a_24647_n7903# VSS.t294 sky130_fd_pr__nfet_01v8 ad=0.08775 pd=0.92 as=0.169 ps=1.82 w=0.65 l=0.15
X112 a_26309_n9259# x4.net8 VSS.t859 VSS.t858 sky130_fd_pr__nfet_01v8 ad=0.0441 pd=0.63 as=0.13165 ps=1.14 w=0.42 l=0.15
X113 VSS.t150 x4._18_ a_25449_n7261# VSS.t149 sky130_fd_pr__nfet_01v8 ad=0.1013 pd=0.99 as=0.0504 ps=0.66 w=0.42 l=0.15
X114 VSS.t122 a_18409_n2290# x3.x2.GN3 VSS.t121 sky130_fd_pr__nfet_01v8 ad=0.1013 pd=0.99 as=0.169 ps=1.82 w=0.65 l=0.15
X115 x4._25_ a_28579_n7627# VDD VDD sky130_fd_pr__pfet_01v8_hvt ad=0.26 pd=2.52 as=0.2279 ps=1.74 w=1 l=0.15
X116 x4.net4 a_24095_n8741# VSS.t171 VSS.t170 sky130_fd_pr__nfet_01v8 ad=0.169 pd=1.82 as=0.08775 ps=0.92 w=0.65 l=0.15
X117 x1.sky130_fd_sc_hd__inv_2_3.A x1.sky130_fd_sc_hd__inv_2_2.A VSS.t922 VSS.t196 sky130_fd_pr__nfet_01v8 ad=0.08775 pd=0.92 as=0.169 ps=1.82 w=0.65 l=0.15
X118 a_26913_n9259# x4._07_ VSS.t801 VSS.t800 sky130_fd_pr__nfet_01v8 ad=0.0813 pd=0.83 as=0.1092 ps=1.36 w=0.42 l=0.15
X119 VDD VSS.t981 VDD VDD sky130_fd_pr__pfet_01v8_hvt ad=0.2262 pd=2.26 as=0 ps=0 w=0.87 l=0.59
X120 a_23391_n5219# a_23675_n5233# a_23610_n5085# VSS.t42 sky130_fd_pr__nfet_01v8 ad=0.0684 pd=0.74 as=0.066 ps=0.745 w=0.36 l=0.15
X121 VSS.t108 a_25709_n7109# x4.clknet_0_clk.t27 VSS.t107 sky130_fd_pr__nfet_01v8 ad=0.0588 pd=0.7 as=0.0588 ps=0.7 w=0.42 l=0.15
X122 VDD VSS.t982 VDD VDD sky130_fd_pr__pfet_01v8_hvt ad=0.2262 pd=2.26 as=0 ps=0 w=0.87 l=1.97
X123 x4.clknet_0_clk.t11 a_25709_n7109# VDD VDD sky130_fd_pr__pfet_01v8_hvt ad=0.14 pd=1.28 as=0.1375 ps=1.275 w=1 l=0.15
X124 a_29645_n10182# x4.net10 VSS.t300 VSS.t299 sky130_fd_pr__nfet_01v8 ad=0.1352 pd=1.56 as=0.0754 ps=0.81 w=0.52 l=0.15
X125 VDD x4._20_ a_25639_n9259# VDD sky130_fd_pr__pfet_01v8_hvt ad=0.142225 pd=1.335 as=0.06615 ps=0.735 w=0.42 l=0.15
X126 x1.sky130_fd_sc_hd__inv_2_14.A x1.sky130_fd_sc_hd__inv_2_13.A VSS.t261 VSS.t30 sky130_fd_pr__nfet_01v8 ad=0.08775 pd=0.92 as=0.169 ps=1.82 w=0.65 l=0.15
X127 VSS.t909 x4.clknet_0_clk.t33 a_23225_n7109# VSS.t908 sky130_fd_pr__nfet_01v8 ad=0.1113 pd=1.37 as=0.0588 ps=0.7 w=0.42 l=0.15
X128 a_25779_n7395# a_25875_n7395# VDD VDD sky130_fd_pr__pfet_01v8_hvt ad=0.27 pd=2.54 as=0.135 ps=1.27 w=1 l=0.15
X129 a_23904_n9259# a_23505_n9259# a_23778_n8893# VSS.t179 sky130_fd_pr__nfet_01v8 ad=0.0696 pd=0.765 as=0.0621 ps=0.705 w=0.36 l=0.15
X130 a_25823_n8395# x4._11_.t6 a_25729_n8395# VSS.t337 sky130_fd_pr__nfet_01v8 ad=0.10725 pd=0.98 as=0.104 ps=0.97 w=0.65 l=0.15
X131 VSS.t293 a_27194_n8171# x4.clknet_1_1__leaf_clk.t31 VSS.t292 sky130_fd_pr__nfet_01v8 ad=0.0588 pd=0.7 as=0.0588 ps=0.7 w=0.42 l=0.15
X132 x3.x1.nSEL1 select1.t2 VDD VDD sky130_fd_pr__pfet_01v8_hvt ad=0.135 pd=1.27 as=0.26 ps=2.52 w=1 l=0.15
X133 a_26457_n7849# x4._21_ VDD VDD sky130_fd_pr__pfet_01v8_hvt ad=0.0441 pd=0.63 as=0.1092 ps=1.36 w=0.42 l=0.15
X134 x1.sky130_fd_sc_hd__inv_2_4.A x1.sky130_fd_sc_hd__inv_2_3.A VSS.t29 VSS.t28 sky130_fd_pr__nfet_01v8 ad=0.08775 pd=0.92 as=0.169 ps=1.82 w=0.65 l=0.15
X135 VDD x4._11_.t7 a_24525_n5745# VDD sky130_fd_pr__pfet_01v8_hvt ad=0.26 pd=2.52 as=0.105 ps=1.21 w=1 l=0.15
X136 VDD VSS.t983 VDD VDD sky130_fd_pr__pfet_01v8_hvt ad=0.2262 pd=2.26 as=0 ps=0 w=0.87 l=2.89
X137 x4._06_ a_25834_n7921# VSS.t755 VSS.t754 sky130_fd_pr__nfet_01v8 ad=0.169 pd=1.82 as=0.10025 ps=0.985 w=0.65 l=0.15
X138 a_28895_n8715# a_28197_n8709# a_28638_n8741# VSS.t894 sky130_fd_pr__nfet_01v8 ad=0.0684 pd=0.74 as=0.0989 ps=0.995 w=0.36 l=0.15
X139 VDD x1.sky130_fd_sc_hd__inv_2_17.A x1.sky130_fd_sc_hd__inv_2_17.Y VDD sky130_fd_pr__pfet_01v8_hvt ad=0.26 pd=2.52 as=0.135 ps=1.27 w=1 l=0.15
X140 VDD a_23225_n7109# x4.clknet_1_0__leaf_clk.t14 VDD sky130_fd_pr__pfet_01v8_hvt ad=0.1375 pd=1.275 as=0.14 ps=1.28 w=1 l=0.15
X141 a_29133_n9803# a_29103_n9829# x4._09_ VDD sky130_fd_pr__pfet_01v8_hvt ad=0.26 pd=2.52 as=0.3 ps=2.6 w=1 l=0.15
X142 x4.clknet_1_1__leaf_clk.t30 a_27194_n8171# VSS.t291 VSS.t290 sky130_fd_pr__nfet_01v8 ad=0.0588 pd=0.7 as=0.0588 ps=0.7 w=0.42 l=0.15
X143 VDD x4.clknet_0_clk.t34 a_23225_n7109# VDD sky130_fd_pr__pfet_01v8_hvt ad=0.14 pd=1.28 as=0.14 ps=1.28 w=1 l=0.15
X144 VSS.t632 VDD VSS.t631 VSS.t630 sky130_fd_pr__nfet_01v8 ad=0.143 pd=1.62 as=0 ps=0 w=0.55 l=0.59
X145 VSS.t629 VDD VSS.t628 VSS.t627 sky130_fd_pr__nfet_01v8 ad=0.143 pd=1.62 as=0 ps=0 w=0.55 l=1.05
X146 VSS.t799 a_28638_n9147# a_28596_n9259# VSS.t798 sky130_fd_pr__nfet_01v8 ad=0.12095 pd=1.085 as=0.0696 ps=0.765 w=0.42 l=0.15
X147 VDD a_27194_n8171# x4.clknet_1_1__leaf_clk.t13 VDD sky130_fd_pr__pfet_01v8_hvt ad=0.14 pd=1.28 as=0.14 ps=1.28 w=1 l=0.15
X148 VDD VSS.t984 VDD VDD sky130_fd_pr__pfet_01v8_hvt ad=0.2262 pd=2.26 as=0 ps=0 w=0.87 l=2.89
X149 VDD x1.sky130_fd_sc_hd__inv_2_14.A x1.sky130_fd_sc_hd__inv_2_15.A VDD sky130_fd_pr__pfet_01v8_hvt ad=0.26 pd=2.52 as=0.135 ps=1.27 w=1 l=0.15
X150 a_25875_n7395# a_26166_n7505# a_26117_n7627# VDD sky130_fd_pr__pfet_01v8_hvt ad=0.0567 pd=0.69 as=0.0882 ps=0.84 w=0.42 l=0.15
X151 VSS.t626 VDD VSS.t625 VSS.t406 sky130_fd_pr__nfet_01v8 ad=0.143 pd=1.62 as=0 ps=0 w=0.55 l=0.59
X152 a_27805_n10182# x4.net8 VSS.t857 VSS.t856 sky130_fd_pr__nfet_01v8 ad=0.1352 pd=1.56 as=0.0754 ps=0.81 w=0.52 l=0.15
X153 x4.clknet_1_1__leaf_clk.t12 a_27194_n8171# VDD VDD sky130_fd_pr__pfet_01v8_hvt ad=0.14 pd=1.28 as=0.14 ps=1.28 w=1 l=0.15
X154 VSS.t624 VDD VSS.t623 VSS.t564 sky130_fd_pr__nfet_01v8 ad=0.143 pd=1.62 as=0 ps=0 w=0.55 l=0.59
X155 VDD VSS.t985 VDD VDD sky130_fd_pr__pfet_01v8_hvt ad=0.2262 pd=2.26 as=0 ps=0 w=0.87 l=4.73
X156 VSS.t347 a_28999_n7408# x4._08_ VSS.t346 sky130_fd_pr__nfet_01v8 ad=0.0754 pd=0.81 as=0.1352 ps=1.56 w=0.52 l=0.15
X157 VSS.t674 a_17857_n2290# x3.x2.GN2 VSS.t673 sky130_fd_pr__nfet_01v8 ad=0.1013 pd=0.99 as=0.169 ps=1.82 w=0.65 l=0.15
X158 VDD VSS.t986 VDD VDD sky130_fd_pr__pfet_01v8_hvt ad=0.2262 pd=2.26 as=0 ps=0 w=0.87 l=1.05
X159 VSS.t308 x4._10_ a_24075_n5995# VSS.t307 sky130_fd_pr__nfet_01v8 ad=0.06825 pd=0.745 as=0.1113 ps=1.37 w=0.42 l=0.15
X160 a_26159_n7409# x4.clknet_1_1__leaf_clk.t33 VSS.t874 VSS.t873 sky130_fd_pr__nfet_01v8 ad=0.1092 pd=1.36 as=0.0567 ps=0.69 w=0.42 l=0.15
X161 a_27423_n8893# a_26725_n9259# a_27166_n9147# VSS.t44 sky130_fd_pr__nfet_01v8 ad=0.0684 pd=0.74 as=0.0989 ps=0.995 w=0.36 l=0.15
X162 x4.clknet_0_clk.t26 a_25709_n7109# VSS.t106 VSS.t105 sky130_fd_pr__nfet_01v8 ad=0.0588 pd=0.7 as=0.05775 ps=0.695 w=0.42 l=0.15
X163 a_26798_n8741# a_26630_n8715# VSS.t249 VSS.t248 sky130_fd_pr__nfet_01v8 ad=0.0989 pd=0.995 as=0.12095 ps=1.085 w=0.64 l=0.15
X164 VDD x3.x2.GN2 x3.x2.GP2.t1 VDD sky130_fd_pr__pfet_01v8_hvt ad=0.26 pd=2.52 as=0.135 ps=1.27 w=1 l=0.15
X165 a_25709_n7109# drv_out.t20 VDD VDD sky130_fd_pr__pfet_01v8_hvt ad=0.14 pd=1.28 as=0.14 ps=1.28 w=1 l=0.15
X166 VDD a_23941_n3056# x4.net1 VDD sky130_fd_pr__pfet_01v8_hvt ad=0.11455 pd=1.08 as=0.2054 ps=2.1 w=0.79 l=0.15
X167 VDD x4._10_ a_24075_n5995# VDD sky130_fd_pr__pfet_01v8_hvt ad=0.1625 pd=1.325 as=0.265 ps=2.53 w=1 l=0.15
X168 VSS.t622 VDD VSS.t621 VSS.t550 sky130_fd_pr__nfet_01v8 ad=0.143 pd=1.62 as=0 ps=0 w=0.55 l=0.59
X169 a_23502_n8715# a_23063_n8709# a_23417_n8715# VSS.t159 sky130_fd_pr__nfet_01v8 ad=0.0621 pd=0.705 as=0.0813 ps=0.83 w=0.36 l=0.15
X170 VDD x1.sky130_fd_sc_hd__inv_2_4.A x1.sky130_fd_sc_hd__inv_2_5.A VDD sky130_fd_pr__pfet_01v8_hvt ad=0.26 pd=2.52 as=0.135 ps=1.27 w=1 l=0.15
X171 VSS.t785 a_28638_n8741# a_28596_n8337# VSS.t784 sky130_fd_pr__nfet_01v8 ad=0.12095 pd=1.085 as=0.0696 ps=0.765 w=0.42 l=0.15
X172 VSS.t704 a_23225_n7109# x4.clknet_1_0__leaf_clk.t30 VSS.t703 sky130_fd_pr__nfet_01v8 ad=0.05775 pd=0.695 as=0.0588 ps=0.7 w=0.42 l=0.15
X173 VSS.t911 x4.clknet_0_clk.t35 a_23225_n7109# VSS.t910 sky130_fd_pr__nfet_01v8 ad=0.0588 pd=0.7 as=0.0588 ps=0.7 w=0.42 l=0.15
X174 VSS.t289 a_27194_n8171# x4.clknet_1_1__leaf_clk.t29 VSS.t288 sky130_fd_pr__nfet_01v8 ad=0.0588 pd=0.7 as=0.0588 ps=0.7 w=0.42 l=0.15
X175 VSS.t789 x1.sky130_fd_sc_hd__inv_2_5.A x1.sky130_fd_sc_hd__inv_2_6.A VSS.t788 sky130_fd_pr__nfet_01v8 ad=0.169 pd=1.82 as=0.08775 ps=0.92 w=0.65 l=0.15
X176 VSS.t753 x1.sky130_fd_sc_hd__inv_2_17.Y x1.sky130_fd_sc_hd__inv_2_8.Y VSS.t752 sky130_fd_pr__nfet_01v8 ad=0.169 pd=1.82 as=0.08775 ps=0.92 w=0.65 l=0.15
X177 x4.clknet_1_0__leaf_clk.t13 a_23225_n7109# VDD VDD sky130_fd_pr__pfet_01v8_hvt ad=0.14 pd=1.28 as=0.14 ps=1.28 w=1 l=0.15
X178 a_28647_n9483# x4._11_.t8 a_28457_n9803# VSS.t895 sky130_fd_pr__nfet_01v8 ad=0.10725 pd=0.98 as=0.10725 ps=0.98 w=0.65 l=0.15
X179 a_24220_n9483# x4.net5 VSS.t835 VSS.t834 sky130_fd_pr__nfet_01v8 ad=0.17225 pd=1.83 as=0.08775 ps=0.92 w=0.65 l=0.15
X180 a_28895_n8715# a_28031_n8709# a_28638_n8741# VDD sky130_fd_pr__pfet_01v8_hvt ad=0.0567 pd=0.69 as=0.1095 ps=1.075 w=0.42 l=0.15
X181 VDD VSS.t987 VDD VDD sky130_fd_pr__pfet_01v8_hvt ad=0.2262 pd=2.26 as=0 ps=0 w=0.87 l=4.73
X182 a_26998_n8893# a_26559_n9259# a_26913_n9259# VSS.t68 sky130_fd_pr__nfet_01v8 ad=0.0621 pd=0.705 as=0.0813 ps=0.83 w=0.36 l=0.15
X183 a_28565_n8715# a_28031_n8709# a_28470_n8715# VDD sky130_fd_pr__pfet_01v8_hvt ad=0.07665 pd=0.785 as=0.06825 ps=0.745 w=0.42 l=0.15
X184 VDD a_23927_n8715# a_24095_n8741# VDD sky130_fd_pr__pfet_01v8_hvt ad=0.135 pd=1.27 as=0.27 ps=2.54 w=1 l=0.15
X185 VSS.t620 VDD VSS.t619 VSS.t618 sky130_fd_pr__nfet_01v8 ad=0.143 pd=1.62 as=0 ps=0 w=0.55 l=4.73
X186 VDD VSS.t988 VDD VDD sky130_fd_pr__pfet_01v8_hvt ad=0.2262 pd=2.26 as=0 ps=0 w=0.87 l=4.73
X187 x1.sky130_fd_sc_hd__inv_2_6.A x1.sky130_fd_sc_hd__inv_2_5.A VDD VDD sky130_fd_pr__pfet_01v8_hvt ad=0.135 pd=1.27 as=0.26 ps=2.52 w=1 l=0.15
X188 x4._19_ a_25359_n7627# VSS.t233 VSS.t232 sky130_fd_pr__nfet_01v8 ad=0.169 pd=1.82 as=0.1013 ps=0.99 w=0.65 l=0.15
X189 VDD VSS.t989 VDD VDD sky130_fd_pr__pfet_01v8_hvt ad=0.2262 pd=2.26 as=0 ps=0 w=0.87 l=0.59
X190 x4.clknet_1_1__leaf_clk.t28 a_27194_n8171# VSS.t287 VSS.t286 sky130_fd_pr__nfet_01v8 ad=0.0588 pd=0.7 as=0.0588 ps=0.7 w=0.42 l=0.15
X191 VSS.t225 a_21119_n968.t4 drv_out.t17 VSS.t224 sky130_fd_pr__nfet_01v8 ad=0.495 pd=3.33 as=0.495 ps=3.33 w=3 l=0.15
X192 VSS.t617 VDD VSS.t616 VSS.t615 sky130_fd_pr__nfet_01v8 ad=0.143 pd=1.62 as=0 ps=0 w=0.55 l=4.73
X193 VDD a_23225_n7109# x4.clknet_1_0__leaf_clk.t12 VDD sky130_fd_pr__pfet_01v8_hvt ad=0.14 pd=1.28 as=0.14 ps=1.28 w=1 l=0.15
X194 VDD x4.clknet_0_clk.t36 a_27194_n8171# VDD sky130_fd_pr__pfet_01v8_hvt ad=0.14 pd=1.28 as=0.14 ps=1.28 w=1 l=0.15
X195 a_23505_n9259# a_23339_n9259# VSS.t120 VSS.t119 sky130_fd_pr__nfet_01v8 ad=0.1092 pd=1.36 as=0.0567 ps=0.69 w=0.42 l=0.15
X196 VDD a_27194_n8171# x4.clknet_1_1__leaf_clk.t11 VDD sky130_fd_pr__pfet_01v8_hvt ad=0.14 pd=1.28 as=0.14 ps=1.28 w=1 l=0.15
X197 VSS.t614 VDD VSS.t613 VSS.t555 sky130_fd_pr__nfet_01v8 ad=0.143 pd=1.62 as=0 ps=0 w=0.55 l=0.59
X198 VDD a_25229_n10182# counter3.t2 VDD sky130_fd_pr__pfet_01v8_hvt ad=0.11455 pd=1.08 as=0.2054 ps=2.1 w=0.79 l=0.15
X199 a_25359_n7627# a_25179_n7627# VDD VDD sky130_fd_pr__pfet_01v8_hvt ad=0.0609 pd=0.71 as=0.0714 ps=0.76 w=0.42 l=0.15
X200 VDD VSS.t990 VDD VDD sky130_fd_pr__pfet_01v8_hvt ad=0.2262 pd=2.26 as=0 ps=0 w=0.87 l=0.59
X201 VDD a_28638_n8741# a_28565_n8715# VDD sky130_fd_pr__pfet_01v8_hvt ad=0.178875 pd=1.26 as=0.07665 ps=0.785 w=0.42 l=0.15
X202 VSS.t33 x1.sky130_fd_sc_hd__inv_2_6.A x1.sky130_fd_sc_hd__inv_2_7.A VSS.t32 sky130_fd_pr__nfet_01v8 ad=0.169 pd=1.82 as=0.08775 ps=0.92 w=0.65 l=0.15
X203 x1.sky130_fd_sc_hd__nand2_2_0.B x1.sky130_fd_sc_hd__inv_2_9.A VSS.t223 VSS.t10 sky130_fd_pr__nfet_01v8 ad=0.08775 pd=0.92 as=0.169 ps=1.82 w=0.65 l=0.15
X204 VDD x3.x2.GN4 x3.x2.GP4.t1 VDD sky130_fd_pr__pfet_01v8_hvt ad=0.26 pd=2.52 as=0.135 ps=1.27 w=1 l=0.15
X205 VDD VSS.t991 VDD VDD sky130_fd_pr__pfet_01v8_hvt ad=0.2262 pd=2.26 as=0 ps=0 w=0.87 l=4.73
X206 a_23505_n9259# a_23339_n9259# VDD VDD sky130_fd_pr__pfet_01v8_hvt ad=0.1664 pd=1.8 as=0.0864 ps=0.91 w=0.64 l=0.15
X207 a_25709_n7109# drv_out.t21 VSS.t880 VSS.t879 sky130_fd_pr__nfet_01v8 ad=0.0588 pd=0.7 as=0.0588 ps=0.7 w=0.42 l=0.15
X208 a_24125_n10182# x4.net4 VDD VDD sky130_fd_pr__pfet_01v8_hvt ad=0.2054 pd=2.1 as=0.11455 ps=1.08 w=0.79 l=0.15
X209 VSS.t803 a_25779_n7395# x4.net7 VSS.t802 sky130_fd_pr__nfet_01v8 ad=0.08775 pd=0.92 as=0.169 ps=1.82 w=0.65 l=0.15
X210 x1.sky130_fd_sc_hd__inv_2_11.A ring_out.t11 VDD VDD sky130_fd_pr__pfet_01v8_hvt ad=0.135 pd=1.27 as=0.26 ps=2.52 w=1 l=0.15
X211 VSS.t46 a_27251_n7408# x4._05_ VSS.t45 sky130_fd_pr__nfet_01v8 ad=0.0754 pd=0.81 as=0.1352 ps=1.56 w=0.52 l=0.15
X212 VSS.t766 x4.net4 x4._13_ VSS.t765 sky130_fd_pr__nfet_01v8 ad=0.169 pd=1.82 as=0.08775 ps=0.92 w=0.65 l=0.15
X213 VSS.t612 VDD VSS.t611 VSS.t610 sky130_fd_pr__nfet_01v8 ad=0.143 pd=1.62 as=0 ps=0 w=0.55 l=1.05
X214 VDD x4._11_.t9 a_25729_n8715# VDD sky130_fd_pr__pfet_01v8_hvt ad=0.165 pd=1.33 as=0.16 ps=1.32 w=1 l=0.15
X215 VDD x4._24_ a_28579_n7627# VDD sky130_fd_pr__pfet_01v8_hvt ad=0.2279 pd=1.74 as=0.0609 ps=0.71 w=0.42 l=0.15
X216 VSS.t609 VDD VSS.t608 VSS.t607 sky130_fd_pr__nfet_01v8 ad=0.143 pd=1.62 as=0 ps=0 w=0.55 l=1.05
X217 VSS.t606 VDD VSS.t605 VSS.t604 sky130_fd_pr__nfet_01v8 ad=0.143 pd=1.62 as=0 ps=0 w=0.55 l=4.73
X218 x4.clknet_0_clk.t10 a_25709_n7109# VDD VDD sky130_fd_pr__pfet_01v8_hvt ad=0.14 pd=1.28 as=0.14 ps=1.28 w=1 l=0.15
X219 a_25709_n7109# drv_out.t22 VDD VDD sky130_fd_pr__pfet_01v8_hvt ad=0.14 pd=1.28 as=0.14 ps=1.28 w=1 l=0.15
X220 VSS.t213 a_27055_n8715# a_27223_n8741# VSS.t212 sky130_fd_pr__nfet_01v8 ad=0.08775 pd=0.92 as=0.169 ps=1.82 w=0.65 l=0.15
X221 x4.clknet_1_0__leaf_clk.t29 a_23225_n7109# VSS.t702 VSS.t701 sky130_fd_pr__nfet_01v8 ad=0.0588 pd=0.7 as=0.0588 ps=0.7 w=0.42 l=0.15
X222 VDD x4.net5 a_25211_n9465# VDD sky130_fd_pr__pfet_01v8_hvt ad=0.16655 pd=1.39 as=0.0567 ps=0.69 w=0.42 l=0.15
X223 VDD VSS.t992 VDD VDD sky130_fd_pr__pfet_01v8_hvt ad=0.2262 pd=2.26 as=0 ps=0 w=0.87 l=2.89
X224 VSS.t939 x4._21_ a_25900_n8197# VSS.t938 sky130_fd_pr__nfet_01v8 ad=0.10025 pd=0.985 as=0.1092 ps=1.36 w=0.42 l=0.15
X225 a_26630_n8715# a_26191_n8709# a_26545_n8715# VSS.t169 sky130_fd_pr__nfet_01v8 ad=0.0621 pd=0.705 as=0.0813 ps=0.83 w=0.36 l=0.15
X226 VSS.t603 VDD VSS.t602 VSS.t601 sky130_fd_pr__nfet_01v8 ad=0.143 pd=1.62 as=0 ps=0 w=0.55 l=0.59
X227 VDD VSS.t993 VDD VDD sky130_fd_pr__pfet_01v8_hvt ad=0.2262 pd=2.26 as=0 ps=0 w=0.87 l=4.73
X228 a_23610_n4907# a_23295_n4755# VSS.t3 VSS.t2 sky130_fd_pr__nfet_01v8 ad=0.066 pd=0.745 as=0.1092 ps=1.36 w=0.42 l=0.15
X229 VSS.t700 a_23225_n7109# x4.clknet_1_0__leaf_clk.t28 VSS.t699 sky130_fd_pr__nfet_01v8 ad=0.0588 pd=0.7 as=0.0588 ps=0.7 w=0.42 l=0.15
X230 VSS.t600 VDD VSS.t599 VSS.t598 sky130_fd_pr__nfet_01v8 ad=0.143 pd=1.62 as=0 ps=0 w=0.55 l=1.05
X231 VSS.t285 a_27194_n8171# x4.clknet_1_1__leaf_clk.t27 VSS.t284 sky130_fd_pr__nfet_01v8 ad=0.0588 pd=0.7 as=0.0588 ps=0.7 w=0.42 l=0.15
X232 VSS.t144 x4.clknet_0_clk.t37 a_27194_n8171# VSS.t143 sky130_fd_pr__nfet_01v8 ad=0.0588 pd=0.7 as=0.0588 ps=0.7 w=0.42 l=0.15
X233 x4.clknet_1_0__leaf_clk.t11 a_23225_n7109# VDD VDD sky130_fd_pr__pfet_01v8_hvt ad=0.14 pd=1.28 as=0.14 ps=1.28 w=1 l=0.15
X234 a_24054_n7805# a_23615_n8171# a_23969_n8171# VSS.t51 sky130_fd_pr__nfet_01v8 ad=0.0621 pd=0.705 as=0.0813 ps=0.83 w=0.36 l=0.15
X235 a_24479_n7805# a_23781_n8171# a_24222_n8059# VSS.t737 sky130_fd_pr__nfet_01v8 ad=0.0684 pd=0.74 as=0.0989 ps=0.995 w=0.36 l=0.15
X236 VDD VSS.t994 VDD VDD sky130_fd_pr__pfet_01v8_hvt ad=0.2262 pd=2.26 as=0 ps=0 w=0.87 l=1.05
X237 a_21119_n968.t1 ring_out.t12 VSS.t7 VSS.t6 sky130_fd_pr__nfet_01v8 ad=0.87 pd=6.58 as=0.87 ps=6.58 w=3 l=0.15
X238 VSS.t84 x4._14_ a_24220_n9483# VSS.t83 sky130_fd_pr__nfet_01v8 ad=0.08775 pd=0.92 as=0.10725 ps=0.98 w=0.65 l=0.15
X239 VDD a_19061_n2032# x3.x2.GN4 VDD sky130_fd_pr__pfet_01v8_hvt ad=0.16655 pd=1.39 as=0.475 ps=2.95 w=1 l=0.15
X240 x4._12_ x4.net3.t3 a_22879_n5451# VDD sky130_fd_pr__pfet_01v8_hvt ad=0.265 pd=2.53 as=0.14 ps=1.28 w=1 l=0.15
X241 VSS.t774 a_28895_n8893# a_29063_n8991# VSS.t773 sky130_fd_pr__nfet_01v8 ad=0.08775 pd=0.92 as=0.169 ps=1.82 w=0.65 l=0.15
X242 VDD a_24371_n8991# a_24287_n8893# VDD sky130_fd_pr__pfet_01v8_hvt ad=0.1113 pd=1.37 as=0.0882 ps=0.84 w=0.42 l=0.15
X243 x1.sky130_fd_sc_hd__inv_2_15.A x1.sky130_fd_sc_hd__inv_2_14.A VSS.t964 VSS.t786 sky130_fd_pr__nfet_01v8 ad=0.08775 pd=0.92 as=0.169 ps=1.82 w=0.65 l=0.15
X244 VDD a_23225_n7109# x4.clknet_1_0__leaf_clk.t10 VDD sky130_fd_pr__pfet_01v8_hvt ad=0.14 pd=1.28 as=0.14 ps=1.28 w=1 l=0.15
X245 VDD x4._15_ a_27807_n9829# VDD sky130_fd_pr__pfet_01v8_hvt ad=0.0777 pd=0.79 as=0.0588 ps=0.7 w=0.42 l=0.15
X246 VSS.t597 VDD VSS.t596 VSS.t595 sky130_fd_pr__nfet_01v8 ad=0.143 pd=1.62 as=0 ps=0 w=0.55 l=2.89
X247 VDD x4.clknet_0_clk.t38 a_27194_n8171# VDD sky130_fd_pr__pfet_01v8_hvt ad=0.14 pd=1.28 as=0.14 ps=1.28 w=1 l=0.15
X248 x4.net5 a_24371_n8991# VDD VDD sky130_fd_pr__pfet_01v8_hvt ad=0.26 pd=2.52 as=0.135 ps=1.27 w=1 l=0.15
X249 VSS.t954 x4._22_ a_28743_n9483# VSS.t953 sky130_fd_pr__nfet_01v8 ad=0.112125 pd=0.995 as=0.104 ps=0.97 w=0.65 l=0.15