* NGSPICE file created from tt_um_patdeegan_anamux_parax.ext - technology: sky130A

.subckt tt_um_patdeegan_anamux_parax clk ena rst_n ua[4] ua[5] ua[6] ua[7] ui_in[7]
+ uio_in[0] uio_in[1] uio_in[2] uio_in[3] uio_in[4] uio_in[5] uio_in[6] uio_in[7]
+ uio_oe[0] uio_oe[1] uio_oe[2] uio_oe[3] uio_oe[4] uio_oe[5] uio_oe[6] uio_oe[7]
+ uio_out[0] uio_out[1] uio_out[2] uio_out[3] uio_out[4] uio_out[5] uio_out[6] uio_out[7]
+ uo_out[0] uo_out[1] uo_out[2] uo_out[3] uo_out[4] uo_out[5] uo_out[6] uo_out[7]
+ ui_in[5] ua[0] ua[3] ui_in[1] ua[1] ui_in[4] ui_in[2] ui_in[6] ui_in[0] ua[2] ui_in[3]
+ VGND VDPWR
X0 a_21007_3867# ringtest_0.x4.net2.t2 VGND.t926 VGND.t925 sky130_fd_pr__nfet_01v8 ad=0.1352 pd=1.56 as=0 ps=0 w=0.52 l=0.15
**devattr s=3016,162 d=5408,312
X1 VGND.t899 VDPWR.t1166 VGND.t898 VGND.t897 sky130_fd_pr__nfet_01v8 ad=0 pd=0 as=0 ps=0 w=0.55 l=1.05
**devattr d=5720,324
X2 VGND.t901 VDPWR.t1167 VGND.t900 VGND.t671 sky130_fd_pr__nfet_01v8 ad=0 pd=0 as=0 ps=0 w=0.55 l=0.59
**devattr d=5720,324
X3 a_24527_5340# a_24361_5340# VGND.t165 VGND.t164 sky130_fd_pr__nfet_01v8 ad=0.1092 pd=1.36 as=0 ps=0 w=0.42 l=0.15
**devattr s=2268,138 d=4368,272
X4 ua[2].t3 muxtest_0.x2.x2.GP1.t4 ua[3].t4 VDPWR.t314 sky130_fd_pr__pfet_01v8_lvt ad=0 pd=0 as=0 ps=0 w=10 l=0.35
**devattr s=116000,4116 d=116000,4116
X5 ringtest_0.x4.clknet_0_clk.t15 a_23879_6940# VGND.t642 VGND.t641 sky130_fd_pr__nfet_01v8 ad=0 pd=0 as=0 ps=0 w=0.42 l=0.15
**devattr s=2352,140 d=2352,140
X6 a_24135_3867# ringtest_0.x4.net6.t2 VDPWR.t160 VDPWR.t159 sky130_fd_pr__pfet_01v8_hvt ad=0.2054 pd=2.1 as=0 ps=0 w=0.79 l=0.15
**devattr s=4582,216 d=8216,420
X7 VGND.t1093 a_25364_5878# ringtest_0.x4.clknet_1_1__leaf_clk.t15 VGND.t1092 sky130_fd_pr__nfet_01v8 ad=0 pd=0 as=0 ps=0 w=0.42 l=0.15
**devattr s=2352,140 d=2352,140
X8 VDPWR.t1046 ui_in[1].t0 muxtest_0.x1.x1.nSEL1 VDPWR.t1045 sky130_fd_pr__pfet_01v8_hvt ad=0 pd=0 as=0.135 ps=1.27 w=1 l=0.15
**devattr s=5400,254 d=10400,504
X9 a_22399_8976# a_21852_8720# a_22052_8875# VDPWR.t133 sky130_fd_pr__pfet_01v8_hvt ad=0.05775 pd=0.695 as=0.06825 ps=0.745 w=0.42 l=0.15
**devattr s=2730,149 d=2310,139
X10 muxtest_0.x1.x3.GP1.t3 muxtest_0.x1.x3.GN1 VDPWR.t73 VDPWR.t72 sky130_fd_pr__pfet_01v8_hvt ad=0 pd=0 as=0 ps=0 w=1 l=0.15
**devattr s=10400,504 d=5400,254
X11 a_27491_4566# ringtest_0.x4._23_ ringtest_0.x4._09_ VGND.t608 sky130_fd_pr__nfet_01v8 ad=0.08775 pd=0.92 as=0.25025 ps=1.42 w=0.65 l=0.15
**devattr s=10010,284 d=3510,184
X12 VGND.t550 a_27065_5156# a_27233_5058# VGND.t549 sky130_fd_pr__nfet_01v8 ad=0 pd=0 as=0.169 ps=1.82 w=0.65 l=0.15
**devattr s=6760,364 d=3510,184
X13 VDPWR.t1135 ringtest_0.x4._05_ a_24883_6800# VDPWR.t1134 sky130_fd_pr__pfet_01v8_hvt ad=0 pd=0 as=0.05775 ps=0.695 w=0.42 l=0.15
**devattr s=2310,139 d=4368,272
X14 VDPWR.t1039 a_16579_11759# ringtest_0.x3.x2.GN3 VDPWR.t1038 sky130_fd_pr__pfet_01v8_hvt ad=0 pd=0 as=0.26 ps=2.52 w=1 l=0.15
**devattr s=10400,504 d=9116,348
X15 VDPWR.t754 VGND.t1127 VDPWR.t753 VDPWR.t752 sky130_fd_pr__pfet_01v8_hvt ad=0 pd=0 as=0 ps=0 w=0.87 l=4.73
**devattr d=9048,452
X16 a_25309_5334# a_24527_5340# a_25225_5334# VDPWR.t817 sky130_fd_pr__pfet_01v8_hvt ad=0.0882 pd=0.84 as=0.0567 ps=0.69 w=0.42 l=0.15
**devattr s=2268,138 d=3528,168
X17 a_12019_24012# muxtest_0.x2.x1.nSEL1 VGND.t548 VGND.t547 sky130_fd_pr__nfet_01v8 ad=0.0567 pd=0.69 as=0 ps=0 w=0.42 l=0.15
**devattr s=4472,208 d=2268,138
X18 a_26913_4566# ringtest_0.x4._15_ a_26817_4566# VGND.t575 sky130_fd_pr__nfet_01v8 ad=0.104 pd=0.97 as=0.10725 ps=0.98 w=0.65 l=0.15
**devattr s=4290,196 d=4160,194
X19 VGND.t579 ringtest_0.x4._21_ a_24545_5878# VGND.t578 sky130_fd_pr__nfet_01v8 ad=0 pd=0 as=0.0742 ps=0.913333 w=0.42 l=0.15
**devattr s=4368,272 d=2268,138
X20 muxtest_0.x1.x3.GP4.t3 muxtest_0.x1.x3.GN4 VDPWR.t1011 VDPWR.t1010 sky130_fd_pr__pfet_01v8_hvt ad=0 pd=0 as=0 ps=0 w=1 l=0.15
**devattr s=10400,504 d=5400,254
X21 ringtest_0.x1.sky130_fd_sc_hd__inv_2_12.A ringtest_0.x1.sky130_fd_sc_hd__inv_2_11.A VDPWR.t77 VDPWR.t76 sky130_fd_pr__pfet_01v8_hvt ad=0.135 pd=1.27 as=0 ps=0 w=1 l=0.15
**devattr s=10400,504 d=5400,254
X22 VDPWR.t361 ringtest_0.x4._15_ a_25925_6788# VDPWR.t360 sky130_fd_pr__pfet_01v8_hvt ad=0 pd=0 as=0.06615 ps=0.735 w=0.42 l=0.15
**devattr s=2352,140 d=12498,336
X23 a_24004_6128# ringtest_0.x4._17_ a_23932_6128# VDPWR.t1143 sky130_fd_pr__pfet_01v8_hvt ad=0.165 pd=1.33 as=0.105 ps=1.21 w=1 l=0.15
**devattr s=4200,242 d=6600,266
X24 VGND.t904 VDPWR.t1168 VGND.t903 VGND.t902 sky130_fd_pr__nfet_01v8 ad=0 pd=0 as=0 ps=0 w=0.55 l=4.73
**devattr d=5720,324
X25 a_23467_4818# ringtest_0.x4._11_.t4 a_23381_4818# VGND.t854 sky130_fd_pr__nfet_01v8 ad=0.0567 pd=0.69 as=0.1176 ps=1.4 w=0.42 l=0.15
**devattr s=4704,280 d=2268,138
X26 a_19114_31955# a_19290_32287# a_19242_32347# VGND.t967 sky130_fd_pr__nfet_01v8 ad=0.1092 pd=1.36 as=0.0504 ps=0.66 w=0.42 l=0.15
**devattr s=2016,132 d=4368,272
X27 VGND.t906 VDPWR.t1169 VGND.t905 VGND.t85 sky130_fd_pr__nfet_01v8 ad=0 pd=0 as=0 ps=0 w=0.55 l=0.59
**devattr d=5720,324
X28 ringtest_0.x4.clknet_1_1__leaf_clk.t14 a_25364_5878# VGND.t1091 VGND.t1090 sky130_fd_pr__nfet_01v8 ad=0 pd=0 as=0 ps=0 w=0.42 l=0.15
**devattr s=2352,140 d=2352,140
X29 VDPWR.t963 a_21375_3867# ringtest_0.x4.counter[1] VDPWR.t962 sky130_fd_pr__pfet_01v8_hvt ad=0 pd=0 as=0.2054 ps=2.1 w=0.79 l=0.15
**devattr s=8216,420 d=4582,216
X30 VDPWR.t129 ringtest_0.x4.net5 a_22486_4246# VDPWR.t128 sky130_fd_pr__pfet_01v8_hvt ad=0 pd=0 as=0.105 ps=1.21 w=1 l=0.15
**devattr s=4200,242 d=11200,512
X31 muxtest_0.x1.x1.nSEL0 ui_in[0].t0 VGND.t1 VGND.t0 sky130_fd_pr__nfet_01v8 ad=0.08775 pd=0.92 as=0 ps=0 w=0.65 l=0.15
**devattr s=6760,364 d=3510,184
X32 VDPWR.t849 a_19842_32287# a_19666_31955# VDPWR.t848 sky130_fd_pr__pfet_01v8_hvt ad=0 pd=0 as=0.0609 ps=0.71 w=0.42 l=0.15
**devattr s=2436,142 d=2856,152
X33 muxtest_0.R3R4.t9 muxtest_0.x2.x2.GN3 ua[2].t11 VGND.t947 sky130_fd_pr__nfet_01v8_lvt ad=0 pd=0 as=0 ps=0 w=8 l=0.35
**devattr s=92800,3316 d=92800,3316
X34 VDPWR.t751 VGND.t1128 VDPWR.t750 VDPWR.t749 sky130_fd_pr__pfet_01v8_hvt ad=0 pd=0 as=0 ps=0 w=0.87 l=4.73
**devattr d=9048,452
X35 a_12473_23980# ui_in[4].t0 VDPWR.t789 VDPWR.t788 sky130_fd_pr__pfet_01v8_hvt ad=0.1092 pd=1.36 as=0 ps=0 w=0.42 l=0.15
**devattr s=2856,152 d=4368,272
X36 muxtest_0.x1.x4.A muxtest_0.x1.x3.GP3 muxtest_0.R1R2.t1 VDPWR.t123 sky130_fd_pr__pfet_01v8_lvt ad=2.9 pd=20.58 as=0 ps=0 w=10 l=0.35
**devattr s=116000,4116 d=116000,4116
X37 a_16579_11759# a_16755_12091# a_16707_12151# VGND.t929 sky130_fd_pr__nfet_01v8 ad=0.1092 pd=1.36 as=0.0504 ps=0.66 w=0.42 l=0.15
**devattr s=2016,132 d=4368,272
X38 VDPWR.t5 a_13501_23906# muxtest_0.x2.x2.GN4 VDPWR.t4 sky130_fd_pr__pfet_01v8_hvt ad=0 pd=0 as=0.475 ps=2.95 w=1 l=0.15
**devattr s=19000,590 d=6662,278
X39 VDPWR.t219 a_19289_13081.t2 ringtest_0.drv_out.t18 VDPWR.t218 sky130_fd_pr__pfet_01v8 ad=0 pd=0 as=0 ps=0 w=9 l=0.15
**devattr s=59400,1866 d=59400,1866
X40 VGND.t5 a_21465_9294# ringtest_0.x4.net2.t0 VGND.t4 sky130_fd_pr__nfet_01v8 ad=0 pd=0 as=0 ps=0 w=0.65 l=0.15
**devattr s=6760,364 d=3510,184
X41 ringtest_0.x4.clknet_0_clk.t31 a_23879_6940# VDPWR.t425 VDPWR.t424 sky130_fd_pr__pfet_01v8_hvt ad=0 pd=0 as=0 ps=0 w=1 l=0.15
**devattr s=5600,256 d=5600,256
X42 VDPWR.t249 a_22021_4220# ringtest_0.x4._03_ VDPWR.t248 sky130_fd_pr__pfet_01v8_hvt ad=0 pd=0 as=0.26 ps=2.52 w=1 l=0.15
**devattr s=10400,504 d=7430,283
X43 VGND.t304 ringtest_0.x4.net5 a_23467_4584# VGND.t303 sky130_fd_pr__nfet_01v8 ad=0 pd=0 as=0.0567 ps=0.69 w=0.42 l=0.15
**devattr s=2268,138 d=4472,208
X44 muxtest_0.x2.nselect2 VDPWR.t951 VDPWR.t953 VDPWR.t952 sky130_fd_pr__pfet_01v8_hvt ad=0.135 pd=1.27 as=0 ps=0 w=1 l=0.15
**devattr s=10400,504 d=5400,254
X45 a_16707_12151# ui_in[4].t1 VGND.t114 VGND.t113 sky130_fd_pr__nfet_01v8 ad=0.0504 pd=0.66 as=0 ps=0 w=0.42 l=0.15
**devattr s=4052,198 d=2016,132
X46 VGND.t909 VDPWR.t1170 VGND.t908 VGND.t907 sky130_fd_pr__nfet_01v8 ad=0 pd=0 as=0 ps=0 w=0.55 l=4.73
**devattr d=5720,324
X47 VDPWR.t748 VGND.t1129 VDPWR.t747 VDPWR.t613 sky130_fd_pr__pfet_01v8_hvt ad=0 pd=0 as=0 ps=0 w=0.87 l=1.05
**devattr d=9048,452
X48 ringtest_0.x4._15_ a_23381_4584# VGND.t829 VGND.t828 sky130_fd_pr__nfet_01v8 ad=0.182 pd=1.86 as=0 ps=0 w=0.65 l=0.15
**devattr s=4472,208 d=7280,372
X49 a_23899_5334# ringtest_0.x4._15_ VDPWR.t359 VDPWR.t358 sky130_fd_pr__pfet_01v8_hvt ad=0.1625 pd=1.325 as=0 ps=0 w=1 l=0.15
**devattr s=6900,269 d=6400,264
X50 VDPWR.t330 a_27065_5156# a_27233_5058# VDPWR.t320 sky130_fd_pr__pfet_01v8_hvt ad=0 pd=0 as=0.27 ps=2.54 w=1 l=0.15
**devattr s=10800,508 d=5400,254
X51 muxtest_0.x1.x3.GP3 muxtest_0.x1.x3.GN3 VDPWR.t852 VDPWR.t851 sky130_fd_pr__pfet_01v8_hvt ad=0.135 pd=1.27 as=0 ps=0 w=1 l=0.15
**devattr s=10400,504 d=5400,254
X52 VGND.t912 VDPWR.t1171 VGND.t911 VGND.t910 sky130_fd_pr__nfet_01v8 ad=0 pd=0 as=0 ps=0 w=0.55 l=2.89
**devattr d=5720,324
X53 VGND.t993 ringtest_0.x4.net3.t2 ringtest_0.x4._12_ VGND.t992 sky130_fd_pr__nfet_01v8 ad=0 pd=0 as=0.091 ps=0.93 w=0.65 l=0.15
**devattr s=3640,186 d=6890,366
X54 VGND.t11 a_25975_3867# ringtest_0.x4.counter[6] VGND.t10 sky130_fd_pr__nfet_01v8 ad=0 pd=0 as=0.1352 ps=1.56 w=0.52 l=0.15
**devattr s=5408,312 d=3016,162
X55 a_24329_6640# ringtest_0.x4.clknet_1_1__leaf_clk.t32 VDPWR.t1159 VDPWR.t1158 sky130_fd_pr__pfet_01v8_hvt ad=0.1664 pd=1.8 as=0 ps=0 w=0.64 l=0.15
**devattr s=3456,182 d=6656,360
X56 muxtest_0.x1.x5.A ui_in[2].t0 ua[3].t8 VDPWR.t772 sky130_fd_pr__pfet_01v8_lvt ad=2.9 pd=20.58 as=0 ps=0 w=10 l=0.35
**devattr s=116000,4116 d=116000,4116
X57 ua[1].t1 ringtest_0.x3.x2.GP4.t4 ringtest_0.counter7.t1 VDPWR.t1094 sky130_fd_pr__pfet_01v8_lvt ad=0 pd=0 as=0 ps=0 w=10 l=0.35
**devattr s=116000,4116 d=116000,4116
X58 a_22392_5990# a_22224_6244# VDPWR.t921 VDPWR.t920 sky130_fd_pr__pfet_01v8_hvt ad=0.140385 pd=1.378205 as=0 ps=0 w=0.75 l=0.15
**devattr s=7155,252 d=4380,215
X59 ringtest_0.x4.clknet_1_0__leaf_clk.t31 a_21395_6940# VDPWR.t1086 VDPWR.t1085 sky130_fd_pr__pfet_01v8_hvt ad=0 pd=0 as=0 ps=0 w=1 l=0.15
**devattr s=5600,256 d=5600,256
X60 VGND.t1017 ringtest_0.x4._22_ a_26913_4566# VGND.t1016 sky130_fd_pr__nfet_01v8 ad=0 pd=0 as=0.104 ps=0.97 w=0.65 l=0.15
**devattr s=4160,194 d=4485,199
X61 a_26640_5334# a_26367_5340# a_26555_5334# VDPWR.t151 sky130_fd_pr__pfet_01v8_hvt ad=0.06825 pd=0.745 as=0.05775 ps=0.695 w=0.42 l=0.15
**devattr s=2310,139 d=2730,149
X62 ringtest_0.x4.clknet_1_1__leaf_clk.t31 a_25364_5878# VDPWR.t1131 VDPWR.t1130 sky130_fd_pr__pfet_01v8_hvt ad=0 pd=0 as=0 ps=0 w=1 l=0.15
**devattr s=5600,256 d=5600,256
X63 VDPWR.t746 VGND.t1130 VDPWR.t745 VDPWR.t744 sky130_fd_pr__pfet_01v8_hvt ad=0 pd=0 as=0 ps=0 w=0.87 l=1.05
**devattr d=9048,452
X64 VGND.t39 VDPWR.t1172 VGND.t38 VGND.t37 sky130_fd_pr__nfet_01v8 ad=0 pd=0 as=0 ps=0 w=0.55 l=4.73
**devattr d=5720,324
X65 a_21785_8054# ringtest_0.x4.net3.t3 VDPWR.t1018 VDPWR.t1017 sky130_fd_pr__pfet_01v8_hvt ad=0.0805 pd=0.943333 as=0 ps=0 w=0.42 l=0.15
**devattr s=2268,138 d=2646,147
X66 ringtest_0.x4._17_ a_25925_6788# VGND.t479 VGND.t478 sky130_fd_pr__nfet_01v8 ad=0.169 pd=1.82 as=0 ps=0 w=0.65 l=0.15
**devattr s=7851,266 d=6760,364
X67 VGND.t359 a_19114_31955# muxtest_0.x1.x3.GN2 VGND.t358 sky130_fd_pr__nfet_01v8 ad=0 pd=0 as=0.169 ps=1.82 w=0.65 l=0.15
**devattr s=6760,364 d=4052,198
X68 VDPWR.t183 ringtest_0.x1.sky130_fd_sc_hd__inv_2_7.A ringtest_0.x1.sky130_fd_sc_hd__inv_2_7.Y VDPWR.t182 sky130_fd_pr__pfet_01v8_hvt ad=0 pd=0 as=0.135 ps=1.27 w=1 l=0.15
**devattr s=5400,254 d=10400,504
X69 VDPWR.t950 VDPWR.t948 ringtest_0.x3.nselect2 VDPWR.t949 sky130_fd_pr__pfet_01v8_hvt ad=0 pd=0 as=0.135 ps=1.27 w=1 l=0.15
**devattr s=5400,254 d=10400,504
X70 VDPWR.t423 a_23879_6940# ringtest_0.x4.clknet_0_clk.t30 VDPWR.t422 sky130_fd_pr__pfet_01v8_hvt ad=0 pd=0 as=0 ps=0 w=1 l=0.15
**devattr s=5600,256 d=5600,256
X71 VGND.t856 ringtest_0.x4.net4 ringtest_0.x4._13_ VGND.t855 sky130_fd_pr__nfet_01v8 ad=0 pd=0 as=0.08775 ps=0.92 w=0.65 l=0.15
**devattr s=3510,184 d=6760,364
X72 a_24317_4942# ringtest_0.x4.net6.t3 a_24551_4790# VGND.t330 sky130_fd_pr__nfet_01v8 ad=0.1092 pd=1.36 as=0.0441 ps=0.63 w=0.42 l=0.15
**devattr s=1764,126 d=4368,272
X73 VGND.t723 ringtest_0.x4.clknet_0_clk.t32 a_25364_5878# VGND.t722 sky130_fd_pr__nfet_01v8 ad=0 pd=0 as=0.0588 ps=0.7 w=0.42 l=0.15
**devattr s=2352,140 d=2352,140
X74 VGND.t127 a_22111_10993# ringtest_0.x4.net1 VGND.t126 sky130_fd_pr__nfet_01v8 ad=0 pd=0 as=0.1352 ps=1.56 w=0.52 l=0.15
**devattr s=5408,312 d=3016,162
X75 VGND.t42 VDPWR.t1173 VGND.t41 VGND.t40 sky130_fd_pr__nfet_01v8 ad=0 pd=0 as=0 ps=0 w=0.55 l=4.73
**devattr d=5720,324
X76 VDPWR.t141 a_27815_3867# ringtest_0.x4.counter[8] VDPWR.t140 sky130_fd_pr__pfet_01v8_hvt ad=0 pd=0 as=0.2054 ps=2.1 w=0.79 l=0.15
**devattr s=8216,420 d=4582,216
X77 ringtest_0.x4._00_ a_21425_9686# a_21675_9686# VDPWR.t857 sky130_fd_pr__pfet_01v8_hvt ad=0.3 pd=2.6 as=0.176667 ps=1.686667 w=1 l=0.15
**devattr s=10400,504 d=12000,520
X78 VDPWR.t743 VGND.t1131 VDPWR.t742 VDPWR.t602 sky130_fd_pr__pfet_01v8_hvt ad=0 pd=0 as=0 ps=0 w=0.87 l=0.59
**devattr d=9048,452
X79 VDPWR.t741 VGND.t1132 VDPWR.t740 VDPWR.t739 sky130_fd_pr__pfet_01v8_hvt ad=0 pd=0 as=0 ps=0 w=0.87 l=1.05
**devattr d=9048,452
X80 VDPWR.t841 ringtest_0.x1.sky130_fd_sc_hd__inv_2_2.A ringtest_0.x1.sky130_fd_sc_hd__inv_2_3.A VDPWR.t840 sky130_fd_pr__pfet_01v8_hvt ad=0 pd=0 as=0.135 ps=1.27 w=1 l=0.15
**devattr s=5400,254 d=10400,504
X81 VDPWR.t175 ringtest_0.x4._00_ a_22399_9142# VDPWR.t174 sky130_fd_pr__pfet_01v8_hvt ad=0 pd=0 as=0.05775 ps=0.695 w=0.42 l=0.15
**devattr s=2310,139 d=4368,272
X82 VGND.t640 a_23879_6940# ringtest_0.x4.clknet_0_clk.t14 VGND.t639 sky130_fd_pr__nfet_01v8 ad=0 pd=0 as=0 ps=0 w=0.42 l=0.15
**devattr s=2352,140 d=2352,140
X83 a_21675_4790# a_21509_4790# VGND.t557 VGND.t556 sky130_fd_pr__nfet_01v8 ad=0.1092 pd=1.36 as=0 ps=0 w=0.42 l=0.15
**devattr s=2268,138 d=4368,272
X84 VGND.t1055 ui_in[0].t1 a_19842_32287# VGND.t1054 sky130_fd_pr__nfet_01v8 ad=0 pd=0 as=0.1092 ps=1.36 w=0.42 l=0.15
**devattr s=4368,272 d=4368,272
X85 VGND.t45 VDPWR.t1174 VGND.t44 VGND.t43 sky130_fd_pr__nfet_01v8 ad=0 pd=0 as=0 ps=0 w=0.55 l=4.73
**devattr d=5720,324
X86 VDPWR.t1084 a_21395_6940# ringtest_0.x4.clknet_1_0__leaf_clk.t30 VDPWR.t1083 sky130_fd_pr__pfet_01v8_hvt ad=0 pd=0 as=0 ps=0 w=1 l=0.15
**devattr s=5600,256 d=5600,256
X87 VGND.t136 a_23399_3867# ringtest_0.counter3.t2 VGND.t135 sky130_fd_pr__nfet_01v8 ad=0 pd=0 as=0 ps=0 w=0.52 l=0.15
**devattr s=5408,312 d=3016,162
X88 VDPWR.t286 a_18662_32213# muxtest_0.x1.x3.GN1 VDPWR.t285 sky130_fd_pr__pfet_01v8_hvt ad=0 pd=0 as=0.475 ps=2.95 w=1 l=0.15
**devattr s=19000,590 d=6662,278
X89 VDPWR.t941 ringtest_0.x4.net2.t3 a_21507_9686# VDPWR.t940 sky130_fd_pr__pfet_01v8_hvt ad=0 pd=0 as=0.135 ps=1.27 w=1 l=0.15
**devattr s=5400,254 d=5400,254
X90 VDPWR.t738 VGND.t1133 VDPWR.t737 VDPWR.t736 sky130_fd_pr__pfet_01v8_hvt ad=0 pd=0 as=0 ps=0 w=0.87 l=4.73
**devattr d=9048,452
X91 a_27659_4246# ringtest_0.x4.net11 VDPWR.t809 VDPWR.t96 sky130_fd_pr__pfet_01v8_hvt ad=0.135 pd=1.27 as=0 ps=0 w=1 l=0.15
**devattr s=5400,254 d=5400,254
X92 a_22390_4566# ringtest_0.x4.net5 VGND.t302 VGND.t301 sky130_fd_pr__nfet_01v8 ad=0.128917 pd=1.263333 as=0 ps=0 w=0.65 l=0.15
**devattr s=3510,184 d=6890,366
X93 ringtest_0.x3.x1.nSEL1 ui_in[4].t2 VGND.t116 VGND.t115 sky130_fd_pr__nfet_01v8 ad=0.08775 pd=0.92 as=0 ps=0 w=0.65 l=0.15
**devattr s=6760,364 d=3510,184
X94 ringtest_0.x4.clknet_1_0__leaf_clk.t15 a_21395_6940# VGND.t1051 VGND.t1050 sky130_fd_pr__nfet_01v8 ad=0 pd=0 as=0 ps=0 w=0.42 l=0.15
**devattr s=2352,140 d=2352,140
X95 a_22649_6244# a_21785_5878# a_22392_5990# VDPWR.t156 sky130_fd_pr__pfet_01v8_hvt ad=0.0567 pd=0.69 as=0.078615 ps=0.771795 w=0.42 l=0.15
**devattr s=4380,215 d=2268,138
X96 muxtest_0.x1.x3.GP2.t3 muxtest_0.x1.x3.GN2 VDPWR.t179 VDPWR.t178 sky130_fd_pr__pfet_01v8_hvt ad=0 pd=0 as=0 ps=0 w=1 l=0.15
**devattr s=10400,504 d=5400,254
X97 ua[3].t9 ui_in[2].t1 muxtest_0.x1.x4.A VGND.t662 sky130_fd_pr__nfet_01v8_lvt ad=0 pd=0 as=2.32 ps=16.58 w=8 l=0.35
**devattr s=92800,3316 d=92800,3316
X98 muxtest_0.R5R6.t5 muxtest_0.x1.x3.GN3 muxtest_0.x1.x5.A VGND.t838 sky130_fd_pr__nfet_01v8_lvt ad=0 pd=0 as=2.32 ps=16.58 w=8 l=0.35
**devattr s=92800,3316 d=92800,3316
X99 VGND.t965 a_24329_6640# a_24336_6544# VGND.t964 sky130_fd_pr__nfet_01v8 ad=0 pd=0 as=0.1092 ps=1.36 w=0.42 l=0.15
**devattr s=4368,272 d=2268,138
X100 a_27303_4246# a_27273_4220# ringtest_0.x4._09_ VDPWR.t167 sky130_fd_pr__pfet_01v8_hvt ad=0.176667 pd=1.686667 as=0.3 ps=2.6 w=1 l=0.15
**devattr s=12000,520 d=10400,504
X101 VDPWR.t735 VGND.t1134 VDPWR.t734 VDPWR.t733 sky130_fd_pr__pfet_01v8_hvt ad=0 pd=0 as=0 ps=0 w=0.87 l=1.05
**devattr d=9048,452
X102 ringtest_0.x4.clknet_1_0__leaf_clk.t29 a_21395_6940# VDPWR.t1082 VDPWR.t1081 sky130_fd_pr__pfet_01v8_hvt ad=0 pd=0 as=0 ps=0 w=1 l=0.15
**devattr s=10600,506 d=5600,256
X103 VGND.t924 ringtest_0.x4.net2.t4 a_21425_9686# VGND.t923 sky130_fd_pr__nfet_01v8 ad=0 pd=0 as=0.08775 ps=0.92 w=0.65 l=0.15
**devattr s=3510,184 d=3510,184
X104 a_19666_31955# a_19842_32287# a_19794_32347# VGND.t830 sky130_fd_pr__nfet_01v8 ad=0.1092 pd=1.36 as=0.0504 ps=0.66 w=0.42 l=0.15
**devattr s=2016,132 d=4368,272
X105 muxtest_0.R3R4.t1 muxtest_0.x1.x3.GN1 muxtest_0.x1.x4.A VGND.t155 sky130_fd_pr__nfet_01v8_lvt ad=0 pd=0 as=2.32 ps=16.58 w=8 l=0.35
**devattr s=92800,3316 d=92800,3316
X106 VDPWR.t885 ringtest_0.x1.sky130_fd_sc_hd__inv_2_5.A ringtest_0.x1.sky130_fd_sc_hd__inv_2_6.A VDPWR.t884 sky130_fd_pr__pfet_01v8_hvt ad=0 pd=0 as=0.135 ps=1.27 w=1 l=0.15
**devattr s=5400,254 d=10400,504
X107 a_21845_8816# ringtest_0.x4.clknet_1_0__leaf_clk.t32 VDPWR.t1014 VDPWR.t1013 sky130_fd_pr__pfet_01v8_hvt ad=0.1664 pd=1.8 as=0 ps=0 w=0.64 l=0.15
**devattr s=3456,182 d=6656,360
X108 VGND.t1049 a_21395_6940# ringtest_0.x4.clknet_1_0__leaf_clk.t14 VGND.t1048 sky130_fd_pr__nfet_01v8 ad=0 pd=0 as=0 ps=0 w=0.42 l=0.15
**devattr s=2352,140 d=2352,140
X109 a_21672_5334# a_21399_5340# a_21587_5334# VDPWR.t294 sky130_fd_pr__pfet_01v8_hvt ad=0.06825 pd=0.745 as=0.05775 ps=0.695 w=0.42 l=0.15
**devattr s=2310,139 d=2730,149
X110 ringtest_0.x4.clknet_1_1__leaf_clk.t30 a_25364_5878# VDPWR.t1129 VDPWR.t1128 sky130_fd_pr__pfet_01v8_hvt ad=0 pd=0 as=0 ps=0 w=1 l=0.15
**devattr s=5600,256 d=5600,256
X111 VDPWR.t732 VGND.t1135 VDPWR.t731 VDPWR.t730 sky130_fd_pr__pfet_01v8_hvt ad=0 pd=0 as=0 ps=0 w=0.87 l=0.59
**devattr d=9048,452
X112 a_18662_32213# muxtest_0.x1.x1.nSEL0 a_18836_32319# VGND.t648 sky130_fd_pr__nfet_01v8 ad=0.1176 pd=1.4 as=0.0567 ps=0.69 w=0.42 l=0.15
**devattr s=2268,138 d=4704,280
X113 a_16203_12091# ui_in[4].t3 VDPWR.t113 VDPWR.t112 sky130_fd_pr__pfet_01v8_hvt ad=0.1092 pd=1.36 as=0 ps=0 w=0.42 l=0.15
**devattr s=2856,152 d=4368,272
X114 a_19794_32347# ui_in[1].t1 VGND.t752 VGND.t751 sky130_fd_pr__nfet_01v8 ad=0.0504 pd=0.66 as=0 ps=0 w=0.42 l=0.15
**devattr s=4052,198 d=2016,132
X115 VDPWR.t729 VGND.t1136 VDPWR.t728 VDPWR.t727 sky130_fd_pr__pfet_01v8_hvt ad=0 pd=0 as=0 ps=0 w=0.87 l=1.05
**devattr d=9048,452
X116 VDPWR.t813 a_22817_6146# a_22733_6244# VDPWR.t812 sky130_fd_pr__pfet_01v8_hvt ad=0 pd=0 as=0.0882 ps=0.84 w=0.42 l=0.15
**devattr s=3528,168 d=4452,274
X117 VDPWR.t207 a_17231_12017# ringtest_0.x3.x2.GN4 VDPWR.t206 sky130_fd_pr__pfet_01v8_hvt ad=0 pd=0 as=0.475 ps=2.95 w=1 l=0.15
**devattr s=19000,590 d=6662,278
X118 VDPWR.t421 a_23879_6940# ringtest_0.x4.clknet_0_clk.t29 VDPWR.t420 sky130_fd_pr__pfet_01v8_hvt ad=0 pd=0 as=0 ps=0 w=1 l=0.15
**devattr s=5600,256 d=5600,256
X119 VGND.t1089 a_25364_5878# ringtest_0.x4.clknet_1_1__leaf_clk.t13 VGND.t1088 sky130_fd_pr__nfet_01v8 ad=0 pd=0 as=0 ps=0 w=0.42 l=0.15
**devattr s=2352,140 d=2352,140
X120 ringtest_0.x3.nselect2 VDPWR.t945 VDPWR.t947 VDPWR.t946 sky130_fd_pr__pfet_01v8_hvt ad=0.135 pd=1.27 as=0 ps=0 w=1 l=0.15
**devattr s=10400,504 d=5400,254
X121 a_25925_6788# ringtest_0.x4.net6.t4 VDPWR.t162 VDPWR.t161 sky130_fd_pr__pfet_01v8_hvt ad=0.06615 pd=0.735 as=0 ps=0 w=0.42 l=0.15
**devattr s=4368,272 d=2940,154
X122 a_25975_3867# ringtest_0.x4.net8 VDPWR.t802 VDPWR.t801 sky130_fd_pr__pfet_01v8_hvt ad=0.2054 pd=2.1 as=0 ps=0 w=0.79 l=0.15
**devattr s=4582,216 d=8216,420
X123 ringtest_0.x4.net10 a_27233_5308# VDPWR.t832 VDPWR.t831 sky130_fd_pr__pfet_01v8_hvt ad=0.26 pd=2.52 as=0 ps=0 w=1 l=0.15
**devattr s=5400,254 d=10400,504
X124 a_11845_23906# muxtest_0.x2.x1.nSEL1 VDPWR.t329 VDPWR.t328 sky130_fd_pr__pfet_01v8_hvt ad=0.0567 pd=0.69 as=0 ps=0 w=0.42 l=0.15
**devattr s=6662,278 d=2268,138
X125 ringtest_0.x1.sky130_fd_sc_hd__inv_2_5.A ringtest_0.x1.sky130_fd_sc_hd__inv_2_4.A VGND.t514 VGND.t513 sky130_fd_pr__nfet_01v8 ad=0.08775 pd=0.92 as=0 ps=0 w=0.65 l=0.15
**devattr s=6760,364 d=3510,184
X126 VDPWR.t276 ringtest_0.x1.sky130_fd_sc_hd__inv_2_16.A ringtest_0.x1.sky130_fd_sc_hd__inv_2_17.A VDPWR.t275 sky130_fd_pr__pfet_01v8_hvt ad=0 pd=0 as=0.135 ps=1.27 w=1 l=0.15
**devattr s=5400,254 d=10400,504
X127 a_21939_8054# ringtest_0.x4.net3.t4 a_21867_8054# VGND.t994 sky130_fd_pr__nfet_01v8 ad=0.0441 pd=0.63 as=0.0441 ps=0.63 w=0.42 l=0.15
**devattr s=1764,126 d=1764,126
X128 a_26721_4246# ringtest_0.x4.net10 a_26627_4246# VDPWR.t837 sky130_fd_pr__pfet_01v8_hvt ad=0.1625 pd=1.325 as=0.32 ps=2.64 w=1 l=0.15
**devattr s=12800,528 d=6600,266
X129 a_22116_4902# a_21948_5156# VGND.t847 VGND.t846 sky130_fd_pr__nfet_01v8 ad=0.126592 pd=1.2736 as=0 ps=0 w=0.64 l=0.15
**devattr s=4838,217 d=3956,199
X130 VDPWR.t1080 a_21395_6940# ringtest_0.x4.clknet_1_0__leaf_clk.t28 VDPWR.t1079 sky130_fd_pr__pfet_01v8_hvt ad=0 pd=0 as=0 ps=0 w=1 l=0.15
**devattr s=5600,256 d=5500,255
X131 a_25149_4220# ringtest_0.x4.net7 VDPWR.t228 VDPWR.t227 sky130_fd_pr__pfet_01v8_hvt ad=0.06615 pd=0.735 as=0 ps=0 w=0.42 l=0.15
**devattr s=3108,158 d=2940,154
X132 VDPWR.t891 a_21840_5308# a_21767_5334# VDPWR.t890 sky130_fd_pr__pfet_01v8_hvt ad=0 pd=0 as=0.07665 ps=0.785 w=0.42 l=0.15
**devattr s=3066,157 d=7155,252
X133 VGND.t48 VDPWR.t1175 VGND.t47 VGND.t46 sky130_fd_pr__nfet_01v8 ad=0 pd=0 as=0 ps=0 w=0.55 l=4.73
**devattr d=5720,324
X134 VGND.t51 VDPWR.t1176 VGND.t50 VGND.t49 sky130_fd_pr__nfet_01v8 ad=0 pd=0 as=0 ps=0 w=0.55 l=1.05
**devattr d=5720,324
X135 VDPWR.t173 ringtest_0.x1.sky130_fd_sc_hd__inv_2_7.Y ringtest_0.x1.sky130_fd_sc_hd__inv_2_9.A VDPWR.t172 sky130_fd_pr__pfet_01v8_hvt ad=0 pd=0 as=0.135 ps=1.27 w=1 l=0.15
**devattr s=5400,254 d=10400,504
X136 VDPWR.t726 VGND.t1137 VDPWR.t725 VDPWR.t724 sky130_fd_pr__pfet_01v8_hvt ad=0 pd=0 as=0 ps=0 w=0.87 l=1.05
**devattr d=9048,452
X137 a_24627_6200# ringtest_0.x4._21_ VDPWR.t365 VDPWR.t364 sky130_fd_pr__pfet_01v8_hvt ad=0.0441 pd=0.63 as=0 ps=0 w=0.42 l=0.15
**devattr s=4368,272 d=1764,126
X138 VGND.t658 ringtest_0.x4._16_.t2 a_24986_5878# VGND.t657 sky130_fd_pr__nfet_01v8 ad=0 pd=0 as=0.06615 ps=0.735 w=0.42 l=0.15
**devattr s=2646,147 d=3945,196
X139 VGND.t54 VDPWR.t1177 VGND.t53 VGND.t52 sky130_fd_pr__nfet_01v8 ad=0 pd=0 as=0 ps=0 w=0.55 l=4.73
**devattr d=5720,324
X140 VDPWR.t349 a_22245_8054# ringtest_0.x4._11_.t3 VDPWR.t348 sky130_fd_pr__pfet_01v8_hvt ad=0 pd=0 as=0 ps=0 w=1 l=0.15
**devattr s=5400,254 d=10400,504
X141 a_25977_4220# ringtest_0.x4._11_.t5 VDPWR.t1041 VDPWR.t1040 sky130_fd_pr__pfet_01v8_hvt ad=0.06615 pd=0.735 as=0 ps=0 w=0.42 l=0.15
**devattr s=3108,158 d=2940,154
X142 VGND.t57 VDPWR.t1178 VGND.t56 VGND.t55 sky130_fd_pr__nfet_01v8 ad=0 pd=0 as=0 ps=0 w=0.55 l=4.73
**devattr d=5720,324
X143 a_26367_4790# a_26201_4790# VGND.t321 VGND.t320 sky130_fd_pr__nfet_01v8 ad=0.1092 pd=1.36 as=0 ps=0 w=0.42 l=0.15
**devattr s=2268,138 d=4368,272
X144 VDPWR.t723 VGND.t1138 VDPWR.t722 VDPWR.t624 sky130_fd_pr__pfet_01v8_hvt ad=0 pd=0 as=0 ps=0 w=0.87 l=0.59
**devattr d=9048,452
X145 a_25677_5156# a_24895_4790# a_25593_5156# VDPWR.t767 sky130_fd_pr__pfet_01v8_hvt ad=0.0882 pd=0.84 as=0.0567 ps=0.69 w=0.42 l=0.15
**devattr s=2268,138 d=3528,168
X146 VDPWR.t1142 ringtest_0.x4._17_ a_23349_6422# VDPWR.t1141 sky130_fd_pr__pfet_01v8_hvt ad=0 pd=0 as=0.1092 ps=1.36 w=0.42 l=0.15
**devattr s=4368,272 d=2856,152
X147 VDPWR.t357 ringtest_0.x4._15_ a_25977_4220# VDPWR.t356 sky130_fd_pr__pfet_01v8_hvt ad=0 pd=0 as=0.06615 ps=0.735 w=0.42 l=0.15
**devattr s=2352,140 d=3108,158
X148 VDPWR.t721 VGND.t1139 VDPWR.t720 VDPWR.t498 sky130_fd_pr__pfet_01v8_hvt ad=0 pd=0 as=0 ps=0 w=0.87 l=1.05
**devattr d=9048,452
X149 VDPWR.t187 muxtest_0.x2.x2.GN2 muxtest_0.x2.x2.GP2.t3 VDPWR.t186 sky130_fd_pr__pfet_01v8_hvt ad=0 pd=0 as=0 ps=0 w=1 l=0.15
**devattr s=5400,254 d=10400,504
X150 VDPWR.t309 a_24070_5852# a_24004_6128# VDPWR.t308 sky130_fd_pr__pfet_01v8_hvt ad=0 pd=0 as=0.165 ps=1.33 w=1 l=0.15
**devattr s=6600,266 d=12000,520
X151 muxtest_0.x1.x5.A muxtest_0.x1.x3.GP2.t4 muxtest_0.R6R7.t1 VDPWR.t13 sky130_fd_pr__pfet_01v8_lvt ad=2.9 pd=20.58 as=0 ps=0 w=10 l=0.35
**devattr s=116000,4116 d=116000,4116
X152 ua[0].t1 muxtest_0.x2.x2.GN2 ua[2].t1 VGND.t357 sky130_fd_pr__nfet_01v8_lvt ad=0 pd=0 as=0 ps=0 w=8 l=0.35
**devattr s=92800,3316 d=92800,3316
X153 VGND.t587 a_25977_4220# ringtest_0.x4._23_ VGND.t586 sky130_fd_pr__nfet_01v8 ad=0 pd=0 as=0.169 ps=1.82 w=0.65 l=0.15
**devattr s=6760,364 d=7851,266
X154 VDPWR.t719 VGND.t1140 VDPWR.t718 VDPWR.t717 sky130_fd_pr__pfet_01v8_hvt ad=0 pd=0 as=0 ps=0 w=0.87 l=2.89
**devattr d=9048,452
X155 VDPWR.t716 VGND.t1141 VDPWR.t715 VDPWR.t714 sky130_fd_pr__pfet_01v8_hvt ad=0 pd=0 as=0 ps=0 w=0.87 l=4.73
**devattr d=9048,452
X156 ringtest_0.x1.sky130_fd_sc_hd__inv_2_7.Y ringtest_0.x1.sky130_fd_sc_hd__inv_2_7.A VGND.t351 VGND.t350 sky130_fd_pr__nfet_01v8 ad=0.08775 pd=0.92 as=0 ps=0 w=0.65 l=0.15
**devattr s=6760,364 d=3510,184
X157 VDPWR.t87 ringtest_0.x1.sky130_fd_sc_hd__inv_2_13.A ringtest_0.x1.sky130_fd_sc_hd__inv_2_14.A VDPWR.t86 sky130_fd_pr__pfet_01v8_hvt ad=0 pd=0 as=0.135 ps=1.27 w=1 l=0.15
**devattr s=5400,254 d=10400,504
X158 a_21425_9686# ringtest_0.x4.net1 VGND.t134 VGND.t133 sky130_fd_pr__nfet_01v8 ad=0.08775 pd=0.92 as=0 ps=0 w=0.65 l=0.15
**devattr s=6760,364 d=3510,184
X159 VGND.t721 a_24317_4942# ringtest_0.x4._20_ VGND.t720 sky130_fd_pr__nfet_01v8 ad=0 pd=0 as=0.169 ps=1.82 w=0.65 l=0.15
**devattr s=6760,364 d=5266,228
X160 muxtest_0.x1.x1.nSEL1 ui_in[1].t2 VDPWR.t815 VDPWR.t814 sky130_fd_pr__pfet_01v8_hvt ad=0.135 pd=1.27 as=0 ps=0 w=1 l=0.15
**devattr s=10400,504 d=5400,254
X161 a_21465_8830# a_21561_8830# VGND.t970 VGND.t881 sky130_fd_pr__nfet_01v8 ad=0.169 pd=1.82 as=0 ps=0 w=0.65 l=0.15
**devattr s=3510,184 d=6760,364
X162 ringtest_0.x4.clknet_0_clk.t13 a_23879_6940# VGND.t638 VGND.t637 sky130_fd_pr__nfet_01v8 ad=0 pd=0 as=0 ps=0 w=0.42 l=0.15
**devattr s=2352,140 d=2352,140
X163 a_22295_3867# ringtest_0.x4.net4 VDPWR.t875 VDPWR.t874 sky130_fd_pr__pfet_01v8_hvt ad=0.2054 pd=2.1 as=0 ps=0 w=0.79 l=0.15
**devattr s=4582,216 d=8216,420
X164 muxtest_0.R7R8.t9 muxtest_0.R6R7.t5 VGND.t643 sky130_fd_pr__res_high_po_1p41 l=1.75
X165 VDPWR.t713 VGND.t1142 VDPWR.t712 VDPWR.t711 sky130_fd_pr__pfet_01v8_hvt ad=0 pd=0 as=0 ps=0 w=0.87 l=1.05
**devattr d=9048,452
X166 a_26808_4902# a_26640_5156# VDPWR.t199 VDPWR.t198 sky130_fd_pr__pfet_01v8_hvt ad=0.140385 pd=1.378205 as=0 ps=0 w=0.75 l=0.15
**devattr s=7155,252 d=4380,215
X167 VGND.t60 VDPWR.t1179 VGND.t59 VGND.t58 sky130_fd_pr__nfet_01v8 ad=0 pd=0 as=0 ps=0 w=0.55 l=0.59
**devattr d=5720,324
X168 ringtest_0.x4.clknet_1_1__leaf_clk.t29 a_25364_5878# VDPWR.t1127 VDPWR.t1126 sky130_fd_pr__pfet_01v8_hvt ad=0 pd=0 as=0 ps=0 w=1 l=0.15
**devattr s=5600,256 d=5600,256
X169 VGND.t731 a_26808_5308# a_26766_5712# VGND.t730 sky130_fd_pr__nfet_01v8 ad=0 pd=0 as=0.074954 ps=0.823846 w=0.42 l=0.15
**devattr s=2784,153 d=4838,217
X170 a_25351_5712# a_24361_5340# a_25225_5334# VGND.t163 sky130_fd_pr__nfet_01v8 ad=0.060923 pd=0.687692 as=0.0684 ps=0.74 w=0.36 l=0.15
**devattr s=2736,148 d=2640,149
X171 VGND.t1047 a_21395_6940# ringtest_0.x4.clknet_1_0__leaf_clk.t13 VGND.t1046 sky130_fd_pr__nfet_01v8 ad=0 pd=0 as=0 ps=0 w=0.42 l=0.15
**devattr s=2352,140 d=2352,140
X172 VGND.t63 VDPWR.t1180 VGND.t62 VGND.t61 sky130_fd_pr__nfet_01v8 ad=0 pd=0 as=0 ps=0 w=0.55 l=0.59
**devattr d=5720,324
X173 muxtest_0.R7R8.t8 muxtest_0.x2.x2.GN4 ua[2].t13 VGND.t961 sky130_fd_pr__nfet_01v8_lvt ad=0 pd=0 as=0 ps=0 w=8 l=0.35
**devattr s=92800,3316 d=92800,3316
X174 ringtest_0.x1.sky130_fd_sc_hd__inv_2_3.A ringtest_0.x1.sky130_fd_sc_hd__inv_2_2.A VGND.t776 VGND.t503 sky130_fd_pr__nfet_01v8 ad=0.08775 pd=0.92 as=0 ps=0 w=0.65 l=0.15
**devattr s=6760,364 d=3510,184
X175 VGND.t66 VDPWR.t1181 VGND.t65 VGND.t64 sky130_fd_pr__nfet_01v8 ad=0 pd=0 as=0 ps=0 w=0.55 l=1.05
**devattr d=5720,324
X176 a_21007_3867# ringtest_0.x4.net2.t5 VDPWR.t939 VDPWR.t938 sky130_fd_pr__pfet_01v8_hvt ad=0.2054 pd=2.1 as=0 ps=0 w=0.79 l=0.15
**devattr s=4582,216 d=8216,420
X177 ringtest_0.x4.net4 a_22265_5308# VDPWR.t215 VDPWR.t214 sky130_fd_pr__pfet_01v8_hvt ad=0.26 pd=2.52 as=0 ps=0 w=1 l=0.15
**devattr s=5400,254 d=10400,504
X178 VDPWR.t895 ringtest_0.x1.sky130_fd_sc_hd__inv_2_17.Y ringtest_0.x1.sky130_fd_sc_hd__inv_2_8.Y VDPWR.t894 sky130_fd_pr__pfet_01v8_hvt ad=0 pd=0 as=0.135 ps=1.27 w=1 l=0.15
**devattr s=5400,254 d=10400,504
X179 VGND.t391 a_19289_13081.t3 ringtest_0.drv_out.t10 VGND.t390 sky130_fd_pr__nfet_01v8 ad=0 pd=0 as=0 ps=0 w=3 l=0.15
**devattr s=19800,666 d=19800,666
X180 a_22373_5156# a_21509_4790# a_22116_4902# VDPWR.t336 sky130_fd_pr__pfet_01v8_hvt ad=0.0567 pd=0.69 as=0.078615 ps=0.771795 w=0.42 l=0.15
**devattr s=4380,215 d=2268,138
X181 VDPWR.t710 VGND.t1143 VDPWR.t709 VDPWR.t565 sky130_fd_pr__pfet_01v8_hvt ad=0 pd=0 as=0 ps=0 w=0.87 l=4.73
**devattr d=9048,452
X182 a_26895_3867# ringtest_0.x4.net9 VGND.t522 VGND.t521 sky130_fd_pr__nfet_01v8 ad=0.1352 pd=1.56 as=0 ps=0 w=0.52 l=0.15
**devattr s=3016,162 d=5408,312
X183 a_27191_4790# a_26201_4790# a_27065_5156# VGND.t319 sky130_fd_pr__nfet_01v8 ad=0.060923 pd=0.687692 as=0.0684 ps=0.74 w=0.36 l=0.15
**devattr s=2736,148 d=2640,149
X184 ringtest_0.x1.sky130_fd_sc_hd__inv_2_4.A ringtest_0.x1.sky130_fd_sc_hd__inv_2_3.A VDPWR.t845 VDPWR.t844 sky130_fd_pr__pfet_01v8_hvt ad=0.135 pd=1.27 as=0 ps=0 w=1 l=0.15
**devattr s=10400,504 d=5400,254