* NGSPICE file created from tt_um_patdeegan_anamux_parax.ext - technology: sky130A

.subckt tt_um_patdeegan_anamux_parax clk ena rst_n ua[4] ua[5] ua[6] ua[7] ui_in[7]
+ uio_in[0] uio_in[1] uio_in[2] uio_in[3] uio_in[4] uio_in[5] uio_in[6] uio_in[7]
+ uio_oe[0] uio_oe[1] uio_oe[2] uio_oe[3] uio_oe[4] uio_oe[5] uio_oe[6] uio_oe[7]
+ uio_out[0] uio_out[1] uio_out[2] uio_out[3] uio_out[4] uio_out[5] uio_out[6] uio_out[7]
+ uo_out[0] uo_out[1] uo_out[2] uo_out[3] uo_out[4] uo_out[5] uo_out[6] uo_out[7]
+ ui_in[5] ua[0] ua[3] ui_in[1] ua[1] ui_in[4] ui_in[2] ui_in[6] ui_in[0] ua[2] ui_in[3]
+ VDPWR VSS
X0 a_21007_3867# ringtest_0.x4.net2.t2 VSS.t479 VSS.t478 sky130_fd_pr__nfet_01v8 ad=0.1352 pd=1.56 as=0 ps=0 w=0.52 l=0.15
**devattr s=3016,162 d=5408,312
X1 VSS.t890 VDPWR.t1166 VSS.t889 VSS.t888 sky130_fd_pr__nfet_01v8 ad=0 pd=0 as=0 ps=0 w=0.55 l=1.05
**devattr d=5720,324
X2 VSS.t892 VDPWR.t1167 VSS.t891 VSS.t69 sky130_fd_pr__nfet_01v8 ad=0 pd=0 as=0 ps=0 w=0.55 l=0.59
**devattr d=5720,324
X3 a_24527_5340# a_24361_5340# VSS.t156 VSS.t155 sky130_fd_pr__nfet_01v8 ad=0.1092 pd=1.36 as=0 ps=0 w=0.42 l=0.15
**devattr s=2268,138 d=4368,272
X4 ua[2].t7 muxtest_0.x2.x2.GP1.t4 ua[3].t7 VDPWR.t890 sky130_fd_pr__pfet_01v8_lvt ad=0 pd=0 as=0 ps=0 w=10 l=0.35
**devattr s=116000,4116 d=116000,4116
X5 ringtest_0.x4.clknet_0_clk.t31 a_23879_6940# VSS.t1041 VSS.t1040 sky130_fd_pr__nfet_01v8 ad=0 pd=0 as=0 ps=0 w=0.42 l=0.15
**devattr s=2352,140 d=2352,140
X6 a_24135_3867# ringtest_0.x4.net6.t2 VDPWR.t1077 VDPWR.t1076 sky130_fd_pr__pfet_01v8_hvt ad=0.2054 pd=2.1 as=0 ps=0 w=0.79 l=0.15
**devattr s=4582,216 d=8216,420
X7 VSS.t1088 a_25364_5878# ringtest_0.x4.clknet_1_1__leaf_clk.t31 VSS.t1087 sky130_fd_pr__nfet_01v8 ad=0 pd=0 as=0 ps=0 w=0.42 l=0.15
**devattr s=2352,140 d=2352,140
X8 VDPWR.t1099 ui_in[1].t0 muxtest_0.x1.x1.nSEL1 VDPWR.t1098 sky130_fd_pr__pfet_01v8_hvt ad=0 pd=0 as=0.135 ps=1.27 w=1 l=0.15
**devattr s=5400,254 d=10400,504
X9 a_22399_8976# a_21852_8720# a_22052_8875# VDPWR.t944 sky130_fd_pr__pfet_01v8_hvt ad=0.05775 pd=0.695 as=0.06825 ps=0.745 w=0.42 l=0.15
**devattr s=2730,149 d=2310,139
X10 muxtest_0.x1.x3.GP1.t1 muxtest_0.x1.x3.GN1 VDPWR.t435 VDPWR.t434 sky130_fd_pr__pfet_01v8_hvt ad=0 pd=0 as=0 ps=0 w=1 l=0.15
**devattr s=10400,504 d=5400,254
X11 a_27491_4566# ringtest_0.x4._23_ ringtest_0.x4._09_ VSS.t1056 sky130_fd_pr__nfet_01v8 ad=0.08775 pd=0.92 as=0.25025 ps=1.42 w=0.65 l=0.15
**devattr s=10010,284 d=3510,184
X12 VSS.t485 a_27065_5156# a_27233_5058# VSS.t484 sky130_fd_pr__nfet_01v8 ad=0 pd=0 as=0.169 ps=1.82 w=0.65 l=0.15
**devattr s=6760,364 d=3510,184
X13 VDPWR.t114 ringtest_0.x4._05_ a_24883_6800# VDPWR.t113 sky130_fd_pr__pfet_01v8_hvt ad=0 pd=0 as=0.05775 ps=0.695 w=0.42 l=0.15
**devattr s=2310,139 d=4368,272
X14 VDPWR.t1140 a_16579_11759# ringtest_0.x3.x2.GN3 VDPWR.t1139 sky130_fd_pr__pfet_01v8_hvt ad=0 pd=0 as=0.26 ps=2.52 w=1 l=0.15
**devattr s=10400,504 d=9116,348
X15 VDPWR.t808 VSS.t1127 VDPWR.t807 VDPWR.t806 sky130_fd_pr__pfet_01v8_hvt ad=0 pd=0 as=0 ps=0 w=0.87 l=4.73
**devattr d=9048,452
X16 a_25309_5334# a_24527_5340# a_25225_5334# VDPWR.t94 sky130_fd_pr__pfet_01v8_hvt ad=0.0882 pd=0.84 as=0.0567 ps=0.69 w=0.42 l=0.15
**devattr s=2268,138 d=3528,168
X17 a_12019_24012# muxtest_0.x2.x1.nSEL1 VSS.t983 VSS.t982 sky130_fd_pr__nfet_01v8 ad=0.0567 pd=0.69 as=0 ps=0 w=0.42 l=0.15
**devattr s=4472,208 d=2268,138
X18 a_26913_4566# ringtest_0.x4._15_ a_26817_4566# VSS.t593 sky130_fd_pr__nfet_01v8 ad=0.104 pd=0.97 as=0.10725 ps=0.98 w=0.65 l=0.15
**devattr s=4290,196 d=4160,194
X19 VSS.t144 ringtest_0.x4._21_ a_24545_5878# VSS.t143 sky130_fd_pr__nfet_01v8 ad=0 pd=0 as=0.0742 ps=0.913333 w=0.42 l=0.15
**devattr s=4368,272 d=2268,138
X20 muxtest_0.x1.x3.GP4.t1 muxtest_0.x1.x3.GN4 VDPWR.t948 VDPWR.t947 sky130_fd_pr__pfet_01v8_hvt ad=0 pd=0 as=0 ps=0 w=1 l=0.15
**devattr s=10400,504 d=5400,254
X21 ringtest_0.x1.sky130_fd_sc_hd__inv_2_12.A ringtest_0.x1.sky130_fd_sc_hd__inv_2_11.A VDPWR.t1002 VDPWR.t1001 sky130_fd_pr__pfet_01v8_hvt ad=0.135 pd=1.27 as=0 ps=0 w=1 l=0.15
**devattr s=10400,504 d=5400,254
X22 VDPWR.t415 ringtest_0.x4._15_ a_25925_6788# VDPWR.t414 sky130_fd_pr__pfet_01v8_hvt ad=0 pd=0 as=0.06615 ps=0.735 w=0.42 l=0.15
**devattr s=2352,140 d=12498,336
X23 a_24004_6128# ringtest_0.x4._17_ a_23932_6128# VDPWR.t431 sky130_fd_pr__pfet_01v8_hvt ad=0.165 pd=1.33 as=0.105 ps=1.21 w=1 l=0.15
**devattr s=4200,242 d=6600,266
X24 VSS.t895 VDPWR.t1168 VSS.t894 VSS.t893 sky130_fd_pr__nfet_01v8 ad=0 pd=0 as=0 ps=0 w=0.55 l=4.73
**devattr d=5720,324
X25 a_23467_4818# ringtest_0.x4._11_.t4 a_23381_4818# VSS.t639 sky130_fd_pr__nfet_01v8 ad=0.0567 pd=0.69 as=0.1176 ps=1.4 w=0.42 l=0.15
**devattr s=4704,280 d=2268,138
X26 a_19114_31955# a_19290_32287# a_19242_32347# VSS.t132 sky130_fd_pr__nfet_01v8 ad=0.1092 pd=1.36 as=0.0504 ps=0.66 w=0.42 l=0.15
**devattr s=2016,132 d=4368,272
X27 VSS.t897 VDPWR.t1169 VSS.t896 VSS.t63 sky130_fd_pr__nfet_01v8 ad=0 pd=0 as=0 ps=0 w=0.55 l=0.59
**devattr d=5720,324
X28 ringtest_0.x4.clknet_1_1__leaf_clk.t30 a_25364_5878# VSS.t1086 VSS.t1085 sky130_fd_pr__nfet_01v8 ad=0 pd=0 as=0 ps=0 w=0.42 l=0.15
**devattr s=2352,140 d=2352,140
X29 VDPWR.t260 a_21375_3867# ringtest_0.x4.counter[1] VDPWR.t259 sky130_fd_pr__pfet_01v8_hvt ad=0 pd=0 as=0.2054 ps=2.1 w=0.79 l=0.15
**devattr s=8216,420 d=4582,216
X30 VDPWR.t964 ringtest_0.x4.net5 a_22486_4246# VDPWR.t963 sky130_fd_pr__pfet_01v8_hvt ad=0 pd=0 as=0.105 ps=1.21 w=1 l=0.15
**devattr s=4200,242 d=11200,512
X31 muxtest_0.x1.x1.nSEL0 ui_in[0].t0 VSS.t599 VSS.t598 sky130_fd_pr__nfet_01v8 ad=0.08775 pd=0.92 as=0 ps=0 w=0.65 l=0.15
**devattr s=6760,364 d=3510,184
X32 VDPWR.t869 a_19842_32287# a_19666_31955# VDPWR.t868 sky130_fd_pr__pfet_01v8_hvt ad=0 pd=0 as=0.0609 ps=0.71 w=0.42 l=0.15
**devattr s=2436,142 d=2856,152
X33 muxtest_0.R3R4.t9 muxtest_0.x2.x2.GN3 ua[2].t15 VSS.t1103 sky130_fd_pr__nfet_01v8_lvt ad=0 pd=0 as=0 ps=0 w=8 l=0.35
**devattr s=92800,3316 d=92800,3316
X34 VDPWR.t805 VSS.t1128 VDPWR.t804 VDPWR.t803 sky130_fd_pr__pfet_01v8_hvt ad=0 pd=0 as=0 ps=0 w=0.87 l=4.73
**devattr d=9048,452
X35 a_12473_23980# ui_in[4].t0 VDPWR.t437 VDPWR.t436 sky130_fd_pr__pfet_01v8_hvt ad=0.1092 pd=1.36 as=0 ps=0 w=0.42 l=0.15
**devattr s=2856,152 d=4368,272
X36 muxtest_0.x1.x4.A muxtest_0.x1.x3.GP3 muxtest_0.R1R2.t1 VDPWR.t256 sky130_fd_pr__pfet_01v8_lvt ad=2.9 pd=20.58 as=0 ps=0 w=10 l=0.35
**devattr s=116000,4116 d=116000,4116
X37 a_16579_11759# a_16755_12091# a_16707_12151# VSS.t941 sky130_fd_pr__nfet_01v8 ad=0.1092 pd=1.36 as=0.0504 ps=0.66 w=0.42 l=0.15
**devattr s=2016,132 d=4368,272
X38 VDPWR.t258 a_13501_23906# muxtest_0.x2.x2.GN4 VDPWR.t257 sky130_fd_pr__pfet_01v8_hvt ad=0 pd=0 as=0.475 ps=2.95 w=1 l=0.15
**devattr s=19000,590 d=6662,278
X39 VDPWR.t244 a_19289_13081.t2 ringtest_0.drv_out.t7 VDPWR.t243 sky130_fd_pr__pfet_01v8 ad=0 pd=0 as=0 ps=0 w=9 l=0.15
**devattr s=59400,1866 d=59400,1866
X40 VSS.t959 a_21465_9294# ringtest_0.x4.net2.t0 VSS.t523 sky130_fd_pr__nfet_01v8 ad=0 pd=0 as=0 ps=0 w=0.65 l=0.15
**devattr s=6760,364 d=3510,184
X41 ringtest_0.x4.clknet_0_clk.t15 a_23879_6940# VDPWR.t1075 VDPWR.t1074 sky130_fd_pr__pfet_01v8_hvt ad=0 pd=0 as=0 ps=0 w=1 l=0.15
**devattr s=5600,256 d=5600,256
X42 VDPWR.t1 a_22021_4220# ringtest_0.x4._03_ VDPWR.t0 sky130_fd_pr__pfet_01v8_hvt ad=0 pd=0 as=0.26 ps=2.52 w=1 l=0.15
**devattr s=10400,504 d=7430,283
X43 VSS.t946 ringtest_0.x4.net5 a_23467_4584# VSS.t588 sky130_fd_pr__nfet_01v8 ad=0 pd=0 as=0.0567 ps=0.69 w=0.42 l=0.15
**devattr s=2268,138 d=4472,208
X44 muxtest_0.x2.nselect2 VDPWR.t31 VDPWR.t33 VDPWR.t32 sky130_fd_pr__pfet_01v8_hvt ad=0.135 pd=1.27 as=0 ps=0 w=1 l=0.15
**devattr s=10400,504 d=5400,254
X45 a_16707_12151# ui_in[4].t1 VSS.t401 VSS.t400 sky130_fd_pr__nfet_01v8 ad=0.0504 pd=0.66 as=0 ps=0 w=0.42 l=0.15
**devattr s=4052,198 d=2016,132
X46 VSS.t900 VDPWR.t1170 VSS.t899 VSS.t898 sky130_fd_pr__nfet_01v8 ad=0 pd=0 as=0 ps=0 w=0.55 l=4.73
**devattr d=5720,324
X47 VDPWR.t802 VSS.t1129 VDPWR.t801 VDPWR.t667 sky130_fd_pr__pfet_01v8_hvt ad=0 pd=0 as=0 ps=0 w=0.87 l=1.05
**devattr d=9048,452
X48 ringtest_0.x4._15_ a_23381_4584# VSS.t679 VSS.t678 sky130_fd_pr__nfet_01v8 ad=0.182 pd=1.86 as=0 ps=0 w=0.65 l=0.15
**devattr s=4472,208 d=7280,372
X49 a_23899_5334# ringtest_0.x4._15_ VDPWR.t413 VDPWR.t412 sky130_fd_pr__pfet_01v8_hvt ad=0.1625 pd=1.325 as=0 ps=0 w=1 l=0.15
**devattr s=6900,269 d=6400,264
X50 VDPWR.t297 a_27065_5156# a_27233_5058# VDPWR.t105 sky130_fd_pr__pfet_01v8_hvt ad=0 pd=0 as=0.27 ps=2.54 w=1 l=0.15
**devattr s=10800,508 d=5400,254
X51 muxtest_0.x1.x3.GP3 muxtest_0.x1.x3.GN3 VDPWR.t469 VDPWR.t468 sky130_fd_pr__pfet_01v8_hvt ad=0.135 pd=1.27 as=0 ps=0 w=1 l=0.15
**devattr s=10400,504 d=5400,254
X52 VSS.t903 VDPWR.t1171 VSS.t902 VSS.t901 sky130_fd_pr__nfet_01v8 ad=0 pd=0 as=0 ps=0 w=0.55 l=2.89
**devattr d=5720,324
X53 VSS.t660 ringtest_0.x4.net3.t2 ringtest_0.x4._12_ VSS.t659 sky130_fd_pr__nfet_01v8 ad=0 pd=0 as=0.091 ps=0.93 w=0.65 l=0.15
**devattr s=3640,186 d=6890,366
X54 VSS.t112 a_25975_3867# ringtest_0.x4.counter[6] VSS.t111 sky130_fd_pr__nfet_01v8 ad=0 pd=0 as=0.1352 ps=1.56 w=0.52 l=0.15
**devattr s=5408,312 d=3016,162
X55 a_24329_6640# ringtest_0.x4.clknet_1_1__leaf_clk.t32 VDPWR.t1101 VDPWR.t1100 sky130_fd_pr__pfet_01v8_hvt ad=0.1664 pd=1.8 as=0 ps=0 w=0.64 l=0.15
**devattr s=3456,182 d=6656,360
X56 muxtest_0.x1.x5.A ui_in[2].t0 ua[3].t10 VDPWR.t44 sky130_fd_pr__pfet_01v8_lvt ad=2.9 pd=20.58 as=0 ps=0 w=10 l=0.35
**devattr s=116000,4116 d=116000,4116
X57 ua[1].t15 ringtest_0.x3.x2.GP4.t4 ringtest_0.counter7.t4 VDPWR.t419 sky130_fd_pr__pfet_01v8_lvt ad=0 pd=0 as=0 ps=0 w=10 l=0.35
**devattr s=116000,4116 d=116000,4116
X58 a_22392_5990# a_22224_6244# VDPWR.t264 VDPWR.t263 sky130_fd_pr__pfet_01v8_hvt ad=0.140385 pd=1.378205 as=0 ps=0 w=0.75 l=0.15
**devattr s=7155,252 d=4380,215
X59 ringtest_0.x4.clknet_1_0__leaf_clk.t15 a_21395_6940# VDPWR.t174 VDPWR.t173 sky130_fd_pr__pfet_01v8_hvt ad=0 pd=0 as=0 ps=0 w=1 l=0.15
**devattr s=5600,256 d=5600,256
X60 VSS.t831 ringtest_0.x4._22_ a_26913_4566# VSS.t830 sky130_fd_pr__nfet_01v8 ad=0 pd=0 as=0.104 ps=0.97 w=0.65 l=0.15
**devattr s=4160,194 d=4485,199
X61 a_26640_5334# a_26367_5340# a_26555_5334# VDPWR.t127 sky130_fd_pr__pfet_01v8_hvt ad=0.06825 pd=0.745 as=0.05775 ps=0.695 w=0.42 l=0.15
**devattr s=2310,139 d=2730,149
X62 ringtest_0.x4.clknet_1_1__leaf_clk.t15 a_25364_5878# VDPWR.t1138 VDPWR.t1137 sky130_fd_pr__pfet_01v8_hvt ad=0 pd=0 as=0 ps=0 w=1 l=0.15
**devattr s=5600,256 d=5600,256
X63 VDPWR.t800 VSS.t1130 VDPWR.t799 VDPWR.t798 sky130_fd_pr__pfet_01v8_hvt ad=0 pd=0 as=0 ps=0 w=0.87 l=1.05
**devattr d=9048,452
X64 VSS.t906 VDPWR.t1172 VSS.t905 VSS.t904 sky130_fd_pr__nfet_01v8 ad=0 pd=0 as=0 ps=0 w=0.55 l=4.73
**devattr d=5720,324
X65 a_21785_8054# ringtest_0.x4.net3.t3 VDPWR.t464 VDPWR.t463 sky130_fd_pr__pfet_01v8_hvt ad=0.0805 pd=0.943333 as=0 ps=0 w=0.42 l=0.15
**devattr s=2268,138 d=2646,147
X66 ringtest_0.x4._17_ a_25925_6788# VSS.t1095 VSS.t1094 sky130_fd_pr__nfet_01v8 ad=0.169 pd=1.82 as=0 ps=0 w=0.65 l=0.15
**devattr s=7851,266 d=6760,364
X67 VSS.t549 a_19114_31955# muxtest_0.x1.x3.GN2 VSS.t548 sky130_fd_pr__nfet_01v8 ad=0 pd=0 as=0.169 ps=1.82 w=0.65 l=0.15
**devattr s=6760,364 d=4052,198
X68 VDPWR.t311 ringtest_0.x1.sky130_fd_sc_hd__inv_2_7.A ringtest_0.x1.sky130_fd_sc_hd__inv_2_7.Y VDPWR.t310 sky130_fd_pr__pfet_01v8_hvt ad=0 pd=0 as=0.135 ps=1.27 w=1 l=0.15
**devattr s=5400,254 d=10400,504
X69 VDPWR.t30 VDPWR.t28 ringtest_0.x3.nselect2 VDPWR.t29 sky130_fd_pr__pfet_01v8_hvt ad=0 pd=0 as=0.135 ps=1.27 w=1 l=0.15
**devattr s=5400,254 d=10400,504
X70 VDPWR.t1073 a_23879_6940# ringtest_0.x4.clknet_0_clk.t14 VDPWR.t1072 sky130_fd_pr__pfet_01v8_hvt ad=0 pd=0 as=0 ps=0 w=1 l=0.15
**devattr s=5600,256 d=5600,256
X71 VSS.t641 ringtest_0.x4.net4 ringtest_0.x4._13_ VSS.t640 sky130_fd_pr__nfet_01v8 ad=0 pd=0 as=0.08775 ps=0.92 w=0.65 l=0.15
**devattr s=3510,184 d=6760,364
X72 a_24317_4942# ringtest_0.x4.net6.t3 a_24551_4790# VSS.t1042 sky130_fd_pr__nfet_01v8 ad=0.1092 pd=1.36 as=0.0441 ps=0.63 w=0.42 l=0.15
**devattr s=1764,126 d=4368,272
X73 VSS.t555 ringtest_0.x4.clknet_0_clk.t32 a_25364_5878# VSS.t554 sky130_fd_pr__nfet_01v8 ad=0 pd=0 as=0.0588 ps=0.7 w=0.42 l=0.15
**devattr s=2352,140 d=2352,140
X74 VSS.t348 a_22111_10993# ringtest_0.x4.net1 VSS.t347 sky130_fd_pr__nfet_01v8 ad=0 pd=0 as=0.1352 ps=1.56 w=0.52 l=0.15
**devattr s=5408,312 d=3016,162
X75 VSS.t909 VDPWR.t1173 VSS.t908 VSS.t907 sky130_fd_pr__nfet_01v8 ad=0 pd=0 as=0 ps=0 w=0.55 l=4.73
**devattr d=5720,324
X76 VDPWR.t814 a_27815_3867# ringtest_0.x4.counter[8] VDPWR.t813 sky130_fd_pr__pfet_01v8_hvt ad=0 pd=0 as=0.2054 ps=2.1 w=0.79 l=0.15
**devattr s=8216,420 d=4582,216
X77 ringtest_0.x4._00_ a_21425_9686# a_21675_9686# VDPWR.t318 sky130_fd_pr__pfet_01v8_hvt ad=0.3 pd=2.6 as=0.176667 ps=1.686667 w=1 l=0.15
**devattr s=10400,504 d=12000,520
X78 VDPWR.t797 VSS.t1131 VDPWR.t796 VDPWR.t656 sky130_fd_pr__pfet_01v8_hvt ad=0 pd=0 as=0 ps=0 w=0.87 l=0.59
**devattr d=9048,452
X79 VDPWR.t795 VSS.t1132 VDPWR.t794 VDPWR.t793 sky130_fd_pr__pfet_01v8_hvt ad=0 pd=0 as=0 ps=0 w=0.87 l=1.05
**devattr d=9048,452
X80 VDPWR.t180 ringtest_0.x1.sky130_fd_sc_hd__inv_2_2.A ringtest_0.x1.sky130_fd_sc_hd__inv_2_3.A VDPWR.t179 sky130_fd_pr__pfet_01v8_hvt ad=0 pd=0 as=0.135 ps=1.27 w=1 l=0.15
**devattr s=5400,254 d=10400,504
X81 VDPWR.t893 ringtest_0.x4._00_ a_22399_9142# VDPWR.t892 sky130_fd_pr__pfet_01v8_hvt ad=0 pd=0 as=0.05775 ps=0.695 w=0.42 l=0.15
**devattr s=2310,139 d=4368,272
X82 VSS.t1039 a_23879_6940# ringtest_0.x4.clknet_0_clk.t30 VSS.t1038 sky130_fd_pr__nfet_01v8 ad=0 pd=0 as=0 ps=0 w=0.42 l=0.15
**devattr s=2352,140 d=2352,140
X83 a_21675_4790# a_21509_4790# VSS.t119 VSS.t118 sky130_fd_pr__nfet_01v8 ad=0.1092 pd=1.36 as=0 ps=0 w=0.42 l=0.15
**devattr s=2268,138 d=4368,272
X84 VSS.t601 ui_in[0].t1 a_19842_32287# VSS.t600 sky130_fd_pr__nfet_01v8 ad=0 pd=0 as=0.1092 ps=1.36 w=0.42 l=0.15
**devattr s=4368,272 d=4368,272
X85 VSS.t912 VDPWR.t1174 VSS.t911 VSS.t910 sky130_fd_pr__nfet_01v8 ad=0 pd=0 as=0 ps=0 w=0.55 l=4.73
**devattr d=5720,324
X86 VDPWR.t172 a_21395_6940# ringtest_0.x4.clknet_1_0__leaf_clk.t14 VDPWR.t171 sky130_fd_pr__pfet_01v8_hvt ad=0 pd=0 as=0 ps=0 w=1 l=0.15
**devattr s=5600,256 d=5600,256
X87 VSS.t814 a_23399_3867# ringtest_0.counter3.t3 VSS.t813 sky130_fd_pr__nfet_01v8 ad=0 pd=0 as=0 ps=0 w=0.52 l=0.15
**devattr s=5408,312 d=3016,162
X88 VDPWR.t224 a_18662_32213# muxtest_0.x1.x3.GN1 VDPWR.t223 sky130_fd_pr__pfet_01v8_hvt ad=0 pd=0 as=0.475 ps=2.95 w=1 l=0.15
**devattr s=19000,590 d=6662,278
X89 VDPWR.t280 ringtest_0.x4.net2.t3 a_21507_9686# VDPWR.t279 sky130_fd_pr__pfet_01v8_hvt ad=0 pd=0 as=0.135 ps=1.27 w=1 l=0.15
**devattr s=5400,254 d=5400,254
X90 VDPWR.t792 VSS.t1133 VDPWR.t791 VDPWR.t790 sky130_fd_pr__pfet_01v8_hvt ad=0 pd=0 as=0 ps=0 w=0.87 l=4.73
**devattr d=9048,452
X91 a_27659_4246# ringtest_0.x4.net11 VDPWR.t875 VDPWR.t874 sky130_fd_pr__pfet_01v8_hvt ad=0.135 pd=1.27 as=0 ps=0 w=1 l=0.15
**devattr s=5400,254 d=5400,254
X92 a_22390_4566# ringtest_0.x4.net5 VSS.t945 VSS.t944 sky130_fd_pr__nfet_01v8 ad=0.128917 pd=1.263333 as=0 ps=0 w=0.65 l=0.15
**devattr s=3510,184 d=6890,366
X93 ringtest_0.x3.x1.nSEL1 ui_in[4].t2 VSS.t403 VSS.t402 sky130_fd_pr__nfet_01v8 ad=0.08775 pd=0.92 as=0 ps=0 w=0.65 l=0.15
**devattr s=6760,364 d=3510,184
X94 ringtest_0.x4.clknet_1_0__leaf_clk.t31 a_21395_6940# VSS.t330 VSS.t329 sky130_fd_pr__nfet_01v8 ad=0 pd=0 as=0 ps=0 w=0.42 l=0.15
**devattr s=2352,140 d=2352,140
X95 a_22649_6244# a_21785_5878# a_22392_5990# VDPWR.t923 sky130_fd_pr__pfet_01v8_hvt ad=0.0567 pd=0.69 as=0.078615 ps=0.771795 w=0.42 l=0.15
**devattr s=4380,215 d=2268,138
X96 muxtest_0.x1.x3.GP2.t1 muxtest_0.x1.x3.GN2 VDPWR.t307 VDPWR.t306 sky130_fd_pr__pfet_01v8_hvt ad=0 pd=0 as=0 ps=0 w=1 l=0.15
**devattr s=10400,504 d=5400,254
X97 ua[3].t11 ui_in[2].t1 muxtest_0.x1.x4.A VSS.t97 sky130_fd_pr__nfet_01v8_lvt ad=0 pd=0 as=2.32 ps=16.58 w=8 l=0.35
**devattr s=92800,3316 d=92800,3316
X98 muxtest_0.R5R6.t3 muxtest_0.x1.x3.GN3 muxtest_0.x1.x5.A VSS.t673 sky130_fd_pr__nfet_01v8_lvt ad=0 pd=0 as=2.32 ps=16.58 w=8 l=0.35
**devattr s=92800,3316 d=92800,3316
X99 VSS.t818 a_24329_6640# a_24336_6544# VSS.t817 sky130_fd_pr__nfet_01v8 ad=0 pd=0 as=0.1092 ps=1.36 w=0.42 l=0.15
**devattr s=4368,272 d=2268,138
X100 a_27303_4246# a_27273_4220# ringtest_0.x4._09_ VDPWR.t212 sky130_fd_pr__pfet_01v8_hvt ad=0.176667 pd=1.686667 as=0.3 ps=2.6 w=1 l=0.15
**devattr s=12000,520 d=10400,504
X101 VDPWR.t789 VSS.t1134 VDPWR.t788 VDPWR.t787 sky130_fd_pr__pfet_01v8_hvt ad=0 pd=0 as=0 ps=0 w=0.87 l=1.05
**devattr d=9048,452
X102 ringtest_0.x4.clknet_1_0__leaf_clk.t13 a_21395_6940# VDPWR.t170 VDPWR.t169 sky130_fd_pr__pfet_01v8_hvt ad=0 pd=0 as=0 ps=0 w=1 l=0.15
**devattr s=10600,506 d=5600,256
X103 VSS.t477 ringtest_0.x4.net2.t4 a_21425_9686# VSS.t476 sky130_fd_pr__nfet_01v8 ad=0 pd=0 as=0.08775 ps=0.92 w=0.65 l=0.15
**devattr s=3510,184 d=3510,184
X104 a_19666_31955# a_19842_32287# a_19794_32347# VSS.t819 sky130_fd_pr__nfet_01v8 ad=0.1092 pd=1.36 as=0.0504 ps=0.66 w=0.42 l=0.15
**devattr s=2016,132 d=4368,272
X105 muxtest_0.R3R4.t7 muxtest_0.x1.x3.GN1 muxtest_0.x1.x4.A VSS.t626 sky130_fd_pr__nfet_01v8_lvt ad=0 pd=0 as=2.32 ps=16.58 w=8 l=0.35
**devattr s=92800,3316 d=92800,3316
X106 VDPWR.t238 ringtest_0.x1.sky130_fd_sc_hd__inv_2_5.A ringtest_0.x1.sky130_fd_sc_hd__inv_2_6.A VDPWR.t237 sky130_fd_pr__pfet_01v8_hvt ad=0 pd=0 as=0.135 ps=1.27 w=1 l=0.15
**devattr s=5400,254 d=10400,504
X107 a_21845_8816# ringtest_0.x4.clknet_1_0__leaf_clk.t32 VDPWR.t837 VDPWR.t836 sky130_fd_pr__pfet_01v8_hvt ad=0.1664 pd=1.8 as=0 ps=0 w=0.64 l=0.15
**devattr s=3456,182 d=6656,360
X108 VSS.t328 a_21395_6940# ringtest_0.x4.clknet_1_0__leaf_clk.t30 VSS.t327 sky130_fd_pr__nfet_01v8 ad=0 pd=0 as=0 ps=0 w=0.42 l=0.15
**devattr s=2352,140 d=2352,140
X109 a_21672_5334# a_21399_5340# a_21587_5334# VDPWR.t351 sky130_fd_pr__pfet_01v8_hvt ad=0.06825 pd=0.745 as=0.05775 ps=0.695 w=0.42 l=0.15
**devattr s=2310,139 d=2730,149
X110 ringtest_0.x4.clknet_1_1__leaf_clk.t14 a_25364_5878# VDPWR.t1136 VDPWR.t1135 sky130_fd_pr__pfet_01v8_hvt ad=0 pd=0 as=0 ps=0 w=1 l=0.15
**devattr s=5600,256 d=5600,256
X111 VDPWR.t786 VSS.t1135 VDPWR.t785 VDPWR.t784 sky130_fd_pr__pfet_01v8_hvt ad=0 pd=0 as=0 ps=0 w=0.87 l=0.59
**devattr d=9048,452
X112 a_18662_32213# muxtest_0.x1.x1.nSEL0 a_18836_32319# VSS.t567 sky130_fd_pr__nfet_01v8 ad=0.1176 pd=1.4 as=0.0567 ps=0.69 w=0.42 l=0.15
**devattr s=2268,138 d=4704,280
X113 a_16203_12091# ui_in[4].t3 VDPWR.t246 VDPWR.t245 sky130_fd_pr__pfet_01v8_hvt ad=0.1092 pd=1.36 as=0 ps=0 w=0.42 l=0.15
**devattr s=2856,152 d=4368,272
X114 a_19794_32347# ui_in[1].t1 VSS.t264 VSS.t263 sky130_fd_pr__nfet_01v8 ad=0.0504 pd=0.66 as=0 ps=0 w=0.42 l=0.15
**devattr s=4052,198 d=2016,132
X115 VDPWR.t783 VSS.t1136 VDPWR.t782 VDPWR.t781 sky130_fd_pr__pfet_01v8_hvt ad=0 pd=0 as=0 ps=0 w=0.87 l=1.05
**devattr d=9048,452
X116 VDPWR.t216 a_22817_6146# a_22733_6244# VDPWR.t215 sky130_fd_pr__pfet_01v8_hvt ad=0 pd=0 as=0.0882 ps=0.84 w=0.42 l=0.15
**devattr s=3528,168 d=4452,274
X117 VDPWR.t9 a_17231_12017# ringtest_0.x3.x2.GN4 VDPWR.t8 sky130_fd_pr__pfet_01v8_hvt ad=0 pd=0 as=0.475 ps=2.95 w=1 l=0.15
**devattr s=19000,590 d=6662,278
X118 VDPWR.t1071 a_23879_6940# ringtest_0.x4.clknet_0_clk.t13 VDPWR.t1070 sky130_fd_pr__pfet_01v8_hvt ad=0 pd=0 as=0 ps=0 w=1 l=0.15
**devattr s=5600,256 d=5600,256
X119 VSS.t1084 a_25364_5878# ringtest_0.x4.clknet_1_1__leaf_clk.t29 VSS.t1083 sky130_fd_pr__nfet_01v8 ad=0 pd=0 as=0 ps=0 w=0.42 l=0.15
**devattr s=2352,140 d=2352,140
X120 ringtest_0.x3.nselect2 VDPWR.t25 VDPWR.t27 VDPWR.t26 sky130_fd_pr__pfet_01v8_hvt ad=0.135 pd=1.27 as=0 ps=0 w=1 l=0.15
**devattr s=10400,504 d=5400,254
X121 a_25925_6788# ringtest_0.x4.net6.t4 VDPWR.t1079 VDPWR.t1078 sky130_fd_pr__pfet_01v8_hvt ad=0.06615 pd=0.735 as=0 ps=0 w=0.42 l=0.15
**devattr s=4368,272 d=2940,154
X122 a_25975_3867# ringtest_0.x4.net8 VDPWR.t347 VDPWR.t346 sky130_fd_pr__pfet_01v8_hvt ad=0.2054 pd=2.1 as=0 ps=0 w=0.79 l=0.15
**devattr s=4582,216 d=8216,420
X123 ringtest_0.x4.net10 a_27233_5308# VDPWR.t820 VDPWR.t83 sky130_fd_pr__pfet_01v8_hvt ad=0.26 pd=2.52 as=0 ps=0 w=1 l=0.15
**devattr s=5400,254 d=10400,504
X124 a_11845_23906# muxtest_0.x2.x1.nSEL1 VDPWR.t1004 VDPWR.t1003 sky130_fd_pr__pfet_01v8_hvt ad=0.0567 pd=0.69 as=0 ps=0 w=0.42 l=0.15
**devattr s=6662,278 d=2268,138
X125 ringtest_0.x1.sky130_fd_sc_hd__inv_2_5.A ringtest_0.x1.sky130_fd_sc_hd__inv_2_4.A VSS.t471 VSS.t89 sky130_fd_pr__nfet_01v8 ad=0.08775 pd=0.92 as=0 ps=0 w=0.65 l=0.15
**devattr s=6760,364 d=3510,184
X126 VDPWR.t190 ringtest_0.x1.sky130_fd_sc_hd__inv_2_16.A ringtest_0.x1.sky130_fd_sc_hd__inv_2_17.A VDPWR.t189 sky130_fd_pr__pfet_01v8_hvt ad=0 pd=0 as=0.135 ps=1.27 w=1 l=0.15
**devattr s=5400,254 d=10400,504
X127 a_21939_8054# ringtest_0.x4.net3.t4 a_21867_8054# VSS.t661 sky130_fd_pr__nfet_01v8 ad=0.0441 pd=0.63 as=0.0441 ps=0.63 w=0.42 l=0.15
**devattr s=1764,126 d=1764,126
X128 a_26721_4246# ringtest_0.x4.net10 a_26627_4246# VDPWR.t825 sky130_fd_pr__pfet_01v8_hvt ad=0.1625 pd=1.325 as=0.32 ps=2.64 w=1 l=0.15
**devattr s=12800,528 d=6600,266
X129 a_22116_4902# a_21948_5156# VSS.t564 VSS.t563 sky130_fd_pr__nfet_01v8 ad=0.126592 pd=1.2736 as=0 ps=0 w=0.64 l=0.15
**devattr s=4838,217 d=3956,199
X130 VDPWR.t168 a_21395_6940# ringtest_0.x4.clknet_1_0__leaf_clk.t12 VDPWR.t167 sky130_fd_pr__pfet_01v8_hvt ad=0 pd=0 as=0 ps=0 w=1 l=0.15
**devattr s=5600,256 d=5500,255
X131 a_25149_4220# ringtest_0.x4.net7 VDPWR.t329 VDPWR.t328 sky130_fd_pr__pfet_01v8_hvt ad=0.06615 pd=0.735 as=0 ps=0 w=0.42 l=0.15
**devattr s=3108,158 d=2940,154
X132 VDPWR.t313 a_21840_5308# a_21767_5334# VDPWR.t312 sky130_fd_pr__pfet_01v8_hvt ad=0 pd=0 as=0.07665 ps=0.785 w=0.42 l=0.15
**devattr s=3066,157 d=7155,252
X133 VSS.t915 VDPWR.t1175 VSS.t914 VSS.t913 sky130_fd_pr__nfet_01v8 ad=0 pd=0 as=0 ps=0 w=0.55 l=4.73
**devattr d=5720,324
X134 VSS.t918 VDPWR.t1176 VSS.t917 VSS.t916 sky130_fd_pr__nfet_01v8 ad=0 pd=0 as=0 ps=0 w=0.55 l=1.05
**devattr d=5720,324
X135 VDPWR.t849 ringtest_0.x1.sky130_fd_sc_hd__inv_2_7.Y ringtest_0.x1.sky130_fd_sc_hd__inv_2_9.A VDPWR.t848 sky130_fd_pr__pfet_01v8_hvt ad=0 pd=0 as=0.135 ps=1.27 w=1 l=0.15
**devattr s=5400,254 d=10400,504
X136 VDPWR.t780 VSS.t1137 VDPWR.t779 VDPWR.t778 sky130_fd_pr__pfet_01v8_hvt ad=0 pd=0 as=0 ps=0 w=0.87 l=1.05
**devattr d=9048,452
X137 a_24627_6200# ringtest_0.x4._21_ VDPWR.t90 VDPWR.t89 sky130_fd_pr__pfet_01v8_hvt ad=0.0441 pd=0.63 as=0 ps=0 w=0.42 l=0.15
**devattr s=4368,272 d=1764,126
X138 VSS.t607 ringtest_0.x4._16_.t2 a_24986_5878# VSS.t606 sky130_fd_pr__nfet_01v8 ad=0 pd=0 as=0.06615 ps=0.735 w=0.42 l=0.15
**devattr s=2646,147 d=3945,196
X139 VSS.t32 VDPWR.t1177 VSS.t31 VSS.t30 sky130_fd_pr__nfet_01v8 ad=0 pd=0 as=0 ps=0 w=0.55 l=4.73
**devattr d=5720,324
X140 VDPWR.t929 a_22245_8054# ringtest_0.x4._11_.t1 VDPWR.t928 sky130_fd_pr__pfet_01v8_hvt ad=0 pd=0 as=0 ps=0 w=1 l=0.15
**devattr s=5400,254 d=10400,504
X141 a_25977_4220# ringtest_0.x4._11_.t5 VDPWR.t972 VDPWR.t971 sky130_fd_pr__pfet_01v8_hvt ad=0.06615 pd=0.735 as=0 ps=0 w=0.42 l=0.15
**devattr s=3108,158 d=2940,154
X142 VSS.t35 VDPWR.t1178 VSS.t34 VSS.t33 sky130_fd_pr__nfet_01v8 ad=0 pd=0 as=0 ps=0 w=0.55 l=4.73
**devattr d=5720,324
X143 a_26367_4790# a_26201_4790# VSS.t284 VSS.t283 sky130_fd_pr__nfet_01v8 ad=0.1092 pd=1.36 as=0 ps=0 w=0.42 l=0.15
**devattr s=2268,138 d=4368,272
X144 VDPWR.t777 VSS.t1138 VDPWR.t776 VDPWR.t678 sky130_fd_pr__pfet_01v8_hvt ad=0 pd=0 as=0 ps=0 w=0.87 l=0.59
**devattr d=9048,452
X145 a_25677_5156# a_24895_4790# a_25593_5156# VDPWR.t315 sky130_fd_pr__pfet_01v8_hvt ad=0.0882 pd=0.84 as=0.0567 ps=0.69 w=0.42 l=0.15
**devattr s=2268,138 d=3528,168
X146 VDPWR.t430 ringtest_0.x4._17_ a_23349_6422# VDPWR.t429 sky130_fd_pr__pfet_01v8_hvt ad=0 pd=0 as=0.1092 ps=1.36 w=0.42 l=0.15
**devattr s=4368,272 d=2856,152
X147 VDPWR.t411 ringtest_0.x4._15_ a_25977_4220# VDPWR.t410 sky130_fd_pr__pfet_01v8_hvt ad=0 pd=0 as=0.06615 ps=0.735 w=0.42 l=0.15
**devattr s=2352,140 d=3108,158
X148 VDPWR.t775 VSS.t1139 VDPWR.t774 VDPWR.t552 sky130_fd_pr__pfet_01v8_hvt ad=0 pd=0 as=0 ps=0 w=0.87 l=1.05
**devattr d=9048,452
X149 VDPWR.t919 muxtest_0.x2.x2.GN2 muxtest_0.x2.x2.GP2.t1 VDPWR.t918 sky130_fd_pr__pfet_01v8_hvt ad=0 pd=0 as=0 ps=0 w=1 l=0.15
**devattr s=5400,254 d=10400,504
X150 VDPWR.t1097 a_24070_5852# a_24004_6128# VDPWR.t1096 sky130_fd_pr__pfet_01v8_hvt ad=0 pd=0 as=0.165 ps=1.33 w=1 l=0.15
**devattr s=6600,266 d=12000,520
X151 muxtest_0.x1.x5.A muxtest_0.x1.x3.GP2.t4 muxtest_0.R6R7.t3 VDPWR.t479 sky130_fd_pr__pfet_01v8_lvt ad=2.9 pd=20.58 as=0 ps=0 w=10 l=0.35
**devattr s=116000,4116 d=116000,4116
X152 ua[0].t3 muxtest_0.x2.x2.GN2 ua[2].t9 VSS.t867 sky130_fd_pr__nfet_01v8_lvt ad=0 pd=0 as=0 ps=0 w=8 l=0.35
**devattr s=92800,3316 d=92800,3316
X153 VSS.t881 a_25977_4220# ringtest_0.x4._23_ VSS.t880 sky130_fd_pr__nfet_01v8 ad=0 pd=0 as=0.169 ps=1.82 w=0.65 l=0.15
**devattr s=6760,364 d=7851,266
X154 VDPWR.t773 VSS.t1140 VDPWR.t772 VDPWR.t771 sky130_fd_pr__pfet_01v8_hvt ad=0 pd=0 as=0 ps=0 w=0.87 l=2.89
**devattr d=9048,452
X155 VDPWR.t770 VSS.t1141 VDPWR.t769 VDPWR.t768 sky130_fd_pr__pfet_01v8_hvt ad=0 pd=0 as=0 ps=0 w=0.87 l=4.73
**devattr d=9048,452
X156 ringtest_0.x1.sky130_fd_sc_hd__inv_2_7.Y ringtest_0.x1.sky130_fd_sc_hd__inv_2_7.A VSS.t503 VSS.t502 sky130_fd_pr__nfet_01v8 ad=0.08775 pd=0.92 as=0 ps=0 w=0.65 l=0.15
**devattr s=6760,364 d=3510,184
X157 VDPWR.t829 ringtest_0.x1.sky130_fd_sc_hd__inv_2_13.A ringtest_0.x1.sky130_fd_sc_hd__inv_2_14.A VDPWR.t828 sky130_fd_pr__pfet_01v8_hvt ad=0 pd=0 as=0.135 ps=1.27 w=1 l=0.15
**devattr s=5400,254 d=10400,504
X158 a_21425_9686# ringtest_0.x4.net1 VSS.t355 VSS.t354 sky130_fd_pr__nfet_01v8 ad=0.08775 pd=0.92 as=0 ps=0 w=0.65 l=0.15
**devattr s=6760,364 d=3510,184
X159 VSS.t833 a_24317_4942# ringtest_0.x4._20_ VSS.t832 sky130_fd_pr__nfet_01v8 ad=0 pd=0 as=0.169 ps=1.82 w=0.65 l=0.15
**devattr s=6760,364 d=5266,228
X160 muxtest_0.x1.x1.nSEL1 ui_in[1].t2 VDPWR.t108 VDPWR.t107 sky130_fd_pr__pfet_01v8_hvt ad=0.135 pd=1.27 as=0 ps=0 w=1 l=0.15
**devattr s=10400,504 d=5400,254
X161 a_21465_8830# a_21561_8830# VSS.t522 VSS.t104 sky130_fd_pr__nfet_01v8 ad=0.169 pd=1.82 as=0 ps=0 w=0.65 l=0.15
**devattr s=3510,184 d=6760,364
X162 ringtest_0.x4.clknet_0_clk.t29 a_23879_6940# VSS.t1037 VSS.t1036 sky130_fd_pr__nfet_01v8 ad=0 pd=0 as=0 ps=0 w=0.42 l=0.15
**devattr s=2352,140 d=2352,140
X163 a_22295_3867# ringtest_0.x4.net4 VDPWR.t454 VDPWR.t453 sky130_fd_pr__pfet_01v8_hvt ad=0.2054 pd=2.1 as=0 ps=0 w=0.79 l=0.15
**devattr s=4582,216 d=8216,420
X164 muxtest_0.R7R8.t6 muxtest_0.R6R7.t4 VSS.t272 sky130_fd_pr__res_high_po_1p41 l=1.75
X165 VDPWR.t767 VSS.t1142 VDPWR.t766 VDPWR.t765 sky130_fd_pr__pfet_01v8_hvt ad=0 pd=0 as=0 ps=0 w=0.87 l=1.05
**devattr d=9048,452
X166 a_26808_4902# a_26640_5156# VDPWR.t465 VDPWR.t445 sky130_fd_pr__pfet_01v8_hvt ad=0.140385 pd=1.378205 as=0 ps=0 w=0.75 l=0.15
**devattr s=7155,252 d=4380,215
X167 VSS.t38 VDPWR.t1179 VSS.t37 VSS.t36 sky130_fd_pr__nfet_01v8 ad=0 pd=0 as=0 ps=0 w=0.55 l=0.59
**devattr d=5720,324
X168 ringtest_0.x4.clknet_1_1__leaf_clk.t13 a_25364_5878# VDPWR.t1134 VDPWR.t1133 sky130_fd_pr__pfet_01v8_hvt ad=0 pd=0 as=0 ps=0 w=1 l=0.15
**devattr s=5600,256 d=5600,256
X169 VSS.t528 a_26808_5308# a_26766_5712# VSS.t527 sky130_fd_pr__nfet_01v8 ad=0 pd=0 as=0.074954 ps=0.823846 w=0.42 l=0.15
**devattr s=2784,153 d=4838,217
X170 a_25351_5712# a_24361_5340# a_25225_5334# VSS.t154 sky130_fd_pr__nfet_01v8 ad=0.060923 pd=0.687692 as=0.0684 ps=0.74 w=0.36 l=0.15
**devattr s=2736,148 d=2640,149
X171 VSS.t326 a_21395_6940# ringtest_0.x4.clknet_1_0__leaf_clk.t29 VSS.t325 sky130_fd_pr__nfet_01v8 ad=0 pd=0 as=0 ps=0 w=0.42 l=0.15
**devattr s=2352,140 d=2352,140
X172 VSS.t41 VDPWR.t1180 VSS.t40 VSS.t39 sky130_fd_pr__nfet_01v8 ad=0 pd=0 as=0 ps=0 w=0.55 l=0.59
**devattr d=5720,324
X173 muxtest_0.R7R8.t1 muxtest_0.x2.x2.GN4 ua[2].t1 VSS.t9 sky130_fd_pr__nfet_01v8_lvt ad=0 pd=0 as=0 ps=0 w=8 l=0.35
**devattr s=92800,3316 d=92800,3316
X174 ringtest_0.x1.sky130_fd_sc_hd__inv_2_3.A ringtest_0.x1.sky130_fd_sc_hd__inv_2_2.A VSS.t336 VSS.t335 sky130_fd_pr__nfet_01v8 ad=0.08775 pd=0.92 as=0 ps=0 w=0.65 l=0.15
**devattr s=6760,364 d=3510,184
X175 VSS.t44 VDPWR.t1181 VSS.t43 VSS.t42 sky130_fd_pr__nfet_01v8 ad=0 pd=0 as=0 ps=0 w=0.55 l=1.05
**devattr d=5720,324
X176 a_21007_3867# ringtest_0.x4.net2.t5 VDPWR.t278 VDPWR.t277 sky130_fd_pr__pfet_01v8_hvt ad=0.2054 pd=2.1 as=0 ps=0 w=0.79 l=0.15
**devattr s=4582,216 d=8216,420
X177 ringtest_0.x4.net4 a_22265_5308# VDPWR.t120 VDPWR.t119 sky130_fd_pr__pfet_01v8_hvt ad=0.26 pd=2.52 as=0 ps=0 w=1 l=0.15
**devattr s=5400,254 d=10400,504
X178 VDPWR.t132 ringtest_0.x1.sky130_fd_sc_hd__inv_2_17.Y ringtest_0.x1.sky130_fd_sc_hd__inv_2_8.Y VDPWR.t131 sky130_fd_pr__pfet_01v8_hvt ad=0 pd=0 as=0.135 ps=1.27 w=1 l=0.15
**devattr s=5400,254 d=10400,504
X179 VSS.t395 a_19289_13081.t3 ringtest_0.drv_out.t15 VSS.t394 sky130_fd_pr__nfet_01v8 ad=0 pd=0 as=0 ps=0 w=3 l=0.15
**devattr s=19800,666 d=19800,666
X180 a_22373_5156# a_21509_4790# a_22116_4902# VDPWR.t63 sky130_fd_pr__pfet_01v8_hvt ad=0.0567 pd=0.69 as=0.078615 ps=0.771795 w=0.42 l=0.15
**devattr s=4380,215 d=2268,138
X181 VDPWR.t764 VSS.t1143 VDPWR.t763 VDPWR.t619 sky130_fd_pr__pfet_01v8_hvt ad=0 pd=0 as=0 ps=0 w=0.87 l=4.73
**devattr d=9048,452
X182 a_26895_3867# ringtest_0.x4.net9 VSS.t127 VSS.t126 sky130_fd_pr__nfet_01v8 ad=0.1352 pd=1.56 as=0 ps=0 w=0.52 l=0.15
**devattr s=3016,162 d=5408,312
X183 a_27191_4790# a_26201_4790# a_27065_5156# VSS.t282 sky130_fd_pr__nfet_01v8 ad=0.060923 pd=0.687692 as=0.0684 ps=0.74 w=0.36 l=0.15
**devattr s=2736,148 d=2640,149
X184 ringtest_0.x1.sky130_fd_sc_hd__inv_2_4.A ringtest_0.x1.sky130_fd_sc_hd__inv_2_3.A VDPWR.t184 VDPWR.t183 sky130_fd_pr__pfet_01v8_hvt ad=0.135 pd=1.27 as=0 ps=0 w=1 l=0.15
**devattr s=10400,504 d=5400,254
X185 VDPWR.t762 VSS.t1144 VDPWR.t761 VDPWR.t543 sky130_fd_pr__pfet_01v8_hvt ad=0 pd=0 as=0 ps=0 w=0.87 l=0.59
**devattr d=9048,452