* NGSPICE file created from mux4onehot_parax.ext - technology: sky130A

.subckt mux4onehot_parax select0 select1 A1 Z4 Z3 Z2 A2 Z1 A4 A3 VSS VDD
X0 VSS.t97 passgatesCtrl_0.net2.t2 a_n597_n2040# VSS.t96 sky130_fd_pr__nfet_01v8 ad=0.1092 pd=1.36 as=0.0567 ps=0.69 w=0.42 l=0.15
X1 VSS.t140 VDD.t176 VSS.t139 VSS.t138 sky130_fd_pr__nfet_01v8 ad=0.143 pd=1.62 as=0 ps=0 w=0.55 l=0.59
X2 VDD.t66 VSS.t177 VDD.t65 VDD.t36 sky130_fd_pr__pfet_01v8_hvt ad=0.2262 pd=2.26 as=0 ps=0 w=0.87 l=0.59
X3 VSS.t142 VDD.t177 VSS.t141 VSS.t30 sky130_fd_pr__nfet_01v8 ad=0.143 pd=1.62 as=0 ps=0 w=0.55 l=0.59
X4 VDD.t64 VSS.t178 VDD.t63 VDD.t31 sky130_fd_pr__pfet_01v8_hvt ad=0.2262 pd=2.26 as=0 ps=0 w=0.87 l=1.05
X5 VSS.t41 a_n1361_n1429# passgatex4_0.GN3 VSS.t8 sky130_fd_pr__nfet_01v8 ad=0.0754 pd=0.81 as=0.1352 ps=1.56 w=0.52 l=0.15
X6 a_n1361_n1429# passgatesCtrl_0.net5 VSS.t9 VSS.t8 sky130_fd_pr__nfet_01v8 ad=0.1352 pd=1.56 as=0.0754 ps=0.81 w=0.52 l=0.15
X7 VSS.t99 select1.t0 a_n2480_n4368# VSS.t98 sky130_fd_pr__nfet_01v8 ad=0.097 pd=0.975 as=0.1092 ps=1.36 w=0.42 l=0.15
X8 VSS.t157 VDD.t178 VSS.t156 VSS.t138 sky130_fd_pr__nfet_01v8 ad=0.143 pd=1.62 as=0 ps=0 w=0.55 l=0.59
X9 VSS.t53 a_n2189_n1429# passgatex4_0.GP3 VSS.t8 sky130_fd_pr__nfet_01v8 ad=0.0754 pd=0.81 as=0.1352 ps=1.56 w=0.52 l=0.15
X10 a_n2189_n1429# passgatesCtrl_0.net9 VDD.t134 VDD.t133 sky130_fd_pr__pfet_01v8_hvt ad=0.2054 pd=2.1 as=0.11455 ps=1.08 w=0.79 l=0.15
X11 passgatesCtrl_0.net6 a_n2975_n2192# VSS.t40 VSS.t39 sky130_fd_pr__nfet_01v8 ad=0.1352 pd=1.56 as=0.0754 ps=0.81 w=0.52 l=0.15
X12 a_n1084_n4216# a_n988_n4394# VSS.t112 VSS.t111 sky130_fd_pr__nfet_01v8 ad=0.1092 pd=1.36 as=0.097 ps=0.975 w=0.42 l=0.15
X13 VSS.t160 VDD.t179 VSS.t159 VSS.t158 sky130_fd_pr__nfet_01v8 ad=0.143 pd=1.62 as=0 ps=0 w=0.55 l=1.05
X14 VDD.t117 passgatesCtrl_0.net2.t3 a_n2161_n4368# VDD.t116 sky130_fd_pr__pfet_01v8_hvt ad=0.14075 pd=1.325 as=0.1092 ps=1.36 w=0.42 l=0.15
X15 VDD.t138 a_n715_n3850# passgatesCtrl_0._04_ VDD.t137 sky130_fd_pr__pfet_01v8_hvt ad=0.2279 pd=1.74 as=0.26 ps=2.52 w=1 l=0.15
X16 VDD.t62 VSS.t179 VDD.t61 VDD.t13 sky130_fd_pr__pfet_01v8_hvt ad=0.2262 pd=2.26 as=0 ps=0 w=0.87 l=0.59
X17 a_n1913_n1429# passgatesCtrl_0.net10.t3 VSS.t68 VSS.t8 sky130_fd_pr__nfet_01v8 ad=0.1352 pd=1.56 as=0.0754 ps=0.81 w=0.52 l=0.15
X18 a_n1173_n2218# a_n1003_n2040# a_n1045_n1942# VDD.t86 sky130_fd_pr__pfet_01v8_hvt ad=0.1092 pd=1.36 as=0.0441 ps=0.63 w=0.42 l=0.15
X19 passgatex4_0.GN2 a_n951_n2736# VSS.t67 VSS.t66 sky130_fd_pr__nfet_01v8 ad=0.1352 pd=1.56 as=0.0754 ps=0.81 w=0.52 l=0.15
X20 a_n801_n4216# passgatesCtrl_0.net1.t2 VSS.t168 VSS.t167 sky130_fd_pr__nfet_01v8 ad=0.1092 pd=1.36 as=0.097 ps=0.975 w=0.42 l=0.15
X21 VDD.t98 a_n1085_n1429# passgatex4_0.GP2 VDD.t97 sky130_fd_pr__pfet_01v8_hvt ad=0.11455 pd=1.08 as=0.2054 ps=2.1 w=0.79 l=0.15
X22 Z3.t1 passgatex4_0.GN3 A3.t1 VSS.t154 sky130_fd_pr__nfet_01v8_lvt ad=2.32 pd=16.58 as=2.32 ps=16.58 w=8 l=0.35
X23 VDD.t60 VSS.t180 VDD.t59 VDD.t41 sky130_fd_pr__pfet_01v8_hvt ad=0.2262 pd=2.26 as=0 ps=0 w=0.87 l=0.59
X24 Z3.t0 passgatex4_0.GN3 A3.t0 VSS.t154 sky130_fd_pr__nfet_01v8_lvt ad=2.32 pd=16.58 as=2.32 ps=16.58 w=8 l=0.35
X25 VDD.t175 a_n1459_n3306# a_n1635_n3306# VDD.t104 sky130_fd_pr__pfet_01v8_hvt ad=0.0714 pd=0.76 as=0.0609 ps=0.71 w=0.42 l=0.15
X26 passgatesCtrl_0.net10.t2 passgatesCtrl_0.net1.t3 a_n2429_n1328# VSS.t94 sky130_fd_pr__nfet_01v8 ad=0.169 pd=1.82 as=0.08775 ps=0.92 w=0.65 l=0.15
X27 VSS.t7 passgatesCtrl_0._01_ a_n1503_n2192# VSS.t6 sky130_fd_pr__nfet_01v8 ad=0.0754 pd=0.81 as=0.1352 ps=1.56 w=0.52 l=0.15
X28 VSS.t137 passgatesCtrl_0.net3 a_n1227_n2736# VSS.t136 sky130_fd_pr__nfet_01v8 ad=0.0754 pd=0.81 as=0.1352 ps=1.56 w=0.52 l=0.15
X29 VDD.t4 a_n995_n3605# passgatesCtrl_0.net4 VDD.t3 sky130_fd_pr__pfet_01v8_hvt ad=0.11455 pd=1.08 as=0.2054 ps=2.1 w=0.79 l=0.15
X30 passgatex4_0.GP1 a_n491_n3280# VSS.t145 VSS.t92 sky130_fd_pr__nfet_01v8 ad=0.1352 pd=1.56 as=0.0754 ps=0.81 w=0.52 l=0.15
X31 VSS.t105 passgatesCtrl_0.net7 a_n491_n3280# VSS.t104 sky130_fd_pr__nfet_01v8 ad=0.0754 pd=0.81 as=0.1352 ps=1.56 w=0.52 l=0.15
X32 VDD.t74 passgatesCtrl_0._00_ a_n2883_n1648# VDD.t73 sky130_fd_pr__pfet_01v8_hvt ad=0.11455 pd=1.08 as=0.2054 ps=2.1 w=0.79 l=0.15
X33 VSS.t173 VDD.t180 VSS.t172 VSS.t171 sky130_fd_pr__nfet_01v8 ad=0.143 pd=1.62 as=0 ps=0 w=0.55 l=4.73
X34 a_n715_n3850# passgatesCtrl_0.net1.t4 VDD.t8 VDD.t7 sky130_fd_pr__pfet_01v8_hvt ad=0.0609 pd=0.71 as=0.2279 ps=1.74 w=0.42 l=0.15
X35 VDD.t125 a_n1637_n1429# passgatex4_0.GN4 VDD.t124 sky130_fd_pr__pfet_01v8_hvt ad=0.11455 pd=1.08 as=0.2054 ps=2.1 w=0.79 l=0.15
X36 passgatex4_0.GN1 a_n1227_n2736# VDD.t159 VDD.t99 sky130_fd_pr__pfet_01v8_hvt ad=0.2054 pd=2.1 as=0.11455 ps=1.08 w=0.79 l=0.15
X37 passgatesCtrl_0.net7 a_n675_n1648# VDD.t121 VDD.t120 sky130_fd_pr__pfet_01v8_hvt ad=0.2054 pd=2.1 as=0.11455 ps=1.08 w=0.79 l=0.15
X38 VSS.t155 passgatesCtrl_0._02_ a_n675_n1648# VSS.t8 sky130_fd_pr__nfet_01v8 ad=0.0754 pd=0.81 as=0.1352 ps=1.56 w=0.52 l=0.15
X39 A3.t2 passgatex4_0.GP3 Z3.t3 VDD.t172 sky130_fd_pr__pfet_01v8_lvt ad=2.9 pd=20.58 as=2.9 ps=20.58 w=10 l=0.35
X40 VDD.t58 VSS.t181 VDD.t57 VDD.t31 sky130_fd_pr__pfet_01v8_hvt ad=0.2262 pd=2.26 as=0 ps=0 w=0.87 l=0.59
X41 a_n482_n4216# select0.t0 VSS.t29 VSS.t28 sky130_fd_pr__nfet_01v8 ad=0.1092 pd=1.36 as=0.097 ps=0.975 w=0.42 l=0.15
X42 VSS.t175 VDD.t181 VSS.t174 VSS.t45 sky130_fd_pr__nfet_01v8 ad=0.143 pd=1.62 as=0 ps=0 w=0.55 l=0.59
X43 a_n2185_n2218# a_n2015_n2040# a_n2057_n1942# VDD.t170 sky130_fd_pr__pfet_01v8_hvt ad=0.1092 pd=1.36 as=0.0441 ps=0.63 w=0.42 l=0.15
X44 VDD.t56 VSS.t182 VDD.t55 VDD.t13 sky130_fd_pr__pfet_01v8_hvt ad=0.2262 pd=2.26 as=0 ps=0 w=0.87 l=1.97
X45 VSS.t107 a_n1635_n3306# passgatesCtrl_0._03_ VSS.t106 sky130_fd_pr__nfet_01v8 ad=0.1013 pd=0.99 as=0.169 ps=1.82 w=0.65 l=0.15
X46 VDD.t54 VSS.t183 VDD.t53 VDD.t16 sky130_fd_pr__pfet_01v8_hvt ad=0.2262 pd=2.26 as=0 ps=0 w=0.87 l=0.59
X47 VDD.t52 VSS.t184 VDD.t51 VDD.t50 sky130_fd_pr__pfet_01v8_hvt ad=0.2262 pd=2.26 as=0 ps=0 w=0.87 l=1.05
X48 VDD.t140 passgatesCtrl_0._05_ a_n2975_n2192# VDD.t139 sky130_fd_pr__pfet_01v8_hvt ad=0.11455 pd=1.08 as=0.2054 ps=2.1 w=0.79 l=0.15
X49 VSS.t119 VDD.t182 VSS.t118 VSS.t15 sky130_fd_pr__nfet_01v8 ad=0.143 pd=1.62 as=0 ps=0 w=0.55 l=0.59
X50 VDD.t128 a_n1635_n3306# passgatesCtrl_0._03_ VDD.t127 sky130_fd_pr__pfet_01v8_hvt ad=0.2279 pd=1.74 as=0.26 ps=2.52 w=1 l=0.15
X51 A2.t1 passgatex4_0.GP2 Z2.t0 VDD.t85 sky130_fd_pr__pfet_01v8_lvt ad=2.9 pd=20.58 as=2.9 ps=20.58 w=10 l=0.35
X52 VSS.t122 VDD.t183 VSS.t121 VSS.t120 sky130_fd_pr__nfet_01v8 ad=0.143 pd=1.62 as=0 ps=0 w=0.55 l=0.59
X53 VSS.t55 a_n1984_n4368# a_n1878_n4368# VSS.t54 sky130_fd_pr__nfet_01v8 ad=0.097 pd=0.975 as=0.1092 ps=1.36 w=0.42 l=0.15
X54 VDD.t49 VSS.t185 VDD.t48 VDD.t19 sky130_fd_pr__pfet_01v8_hvt ad=0.2262 pd=2.26 as=0 ps=0 w=0.87 l=1.05
X55 a_n2189_n1429# passgatesCtrl_0.net9 VSS.t113 VSS.t8 sky130_fd_pr__nfet_01v8 ad=0.1352 pd=1.56 as=0.0754 ps=0.81 w=0.52 l=0.15
X56 VDD.t146 a_n1173_n2218# passgatesCtrl_0._01_ VDD.t145 sky130_fd_pr__pfet_01v8_hvt ad=0.14825 pd=1.34 as=0.27 ps=2.54 w=1 l=0.15
X57 VSS.t76 VDD.t184 VSS.t75 VSS.t19 sky130_fd_pr__nfet_01v8 ad=0.143 pd=1.62 as=0 ps=0 w=0.55 l=1.05
X58 VSS.t52 a_n1003_n2040# a_n1173_n2218# VSS.t51 sky130_fd_pr__nfet_01v8 ad=0.1575 pd=1.17 as=0.0567 ps=0.69 w=0.42 l=0.15
X59 a_n2429_n1328# passgatesCtrl_0.net2.t4 VSS.t95 VSS.t94 sky130_fd_pr__nfet_01v8 ad=0.08775 pd=0.92 as=0.169 ps=1.82 w=0.65 l=0.15
X60 VSS.t131 a_n1173_n2218# passgatesCtrl_0._01_ VSS.t130 sky130_fd_pr__nfet_01v8 ad=0.101875 pd=0.99 as=0.1755 ps=1.84 w=0.65 l=0.15
X61 VSS.t5 a_n995_n3605# passgatesCtrl_0.net4 VSS.t4 sky130_fd_pr__nfet_01v8 ad=0.0754 pd=0.81 as=0.1352 ps=1.56 w=0.52 l=0.15
X62 VSS.t79 VDD.t185 VSS.t78 VSS.t77 sky130_fd_pr__nfet_01v8 ad=0.143 pd=1.62 as=0 ps=0 w=0.55 l=4.73
X63 a_n1003_n2040# passgatesCtrl_0.net1.t5 VSS.t135 VSS.t66 sky130_fd_pr__nfet_01v8 ad=0.1092 pd=1.36 as=0.1575 ps=1.17 w=0.42 l=0.15
X64 VSS.t65 a_n1085_n1429# passgatex4_0.GP2 VSS.t8 sky130_fd_pr__nfet_01v8 ad=0.0754 pd=0.81 as=0.1352 ps=1.56 w=0.52 l=0.15
X65 passgatesCtrl_0.net2.t1 a_n2480_n4368# VSS.t134 VSS.t133 sky130_fd_pr__nfet_01v8 ad=0.169 pd=1.82 as=0.097 ps=0.975 w=0.65 l=0.15
X66 a_n1459_n3306# passgatesCtrl_0.net1.t6 VDD.t155 VDD.t104 sky130_fd_pr__pfet_01v8_hvt ad=0.1092 pd=1.36 as=0.0714 ps=0.76 w=0.42 l=0.15
X67 VDD.t47 VSS.t186 VDD.t46 VDD.t13 sky130_fd_pr__pfet_01v8_hvt ad=0.2262 pd=2.26 as=0 ps=0 w=0.87 l=0.59
X68 a_n1085_n1429# passgatesCtrl_0.net8 VDD.t84 VDD.t83 sky130_fd_pr__pfet_01v8_hvt ad=0.2054 pd=2.1 as=0.11455 ps=1.08 w=0.79 l=0.15
X69 a_n715_n3850# a_n539_n3518# a_n587_n3458# VSS.t143 sky130_fd_pr__nfet_01v8 ad=0.1092 pd=1.36 as=0.0504 ps=0.66 w=0.42 l=0.15
X70 a_n587_n3458# passgatesCtrl_0.net1.t7 VSS.t115 VSS.t114 sky130_fd_pr__nfet_01v8 ad=0.0504 pd=0.66 as=0.1013 ps=0.99 w=0.42 l=0.15
X71 VSS.t21 VDD.t186 VSS.t20 VSS.t19 sky130_fd_pr__nfet_01v8 ad=0.143 pd=1.62 as=0 ps=0 w=0.55 l=2.89
X72 passgatesCtrl_0.net2.t0 a_n2480_n4368# VDD.t150 VDD.t149 sky130_fd_pr__pfet_01v8_hvt ad=0.26 pd=2.52 as=0.14075 ps=1.325 w=1 l=0.15
X73 passgatesCtrl_0.net8 a_n1503_n2192# VSS.t26 VSS.t25 sky130_fd_pr__nfet_01v8 ad=0.1352 pd=1.56 as=0.0754 ps=0.81 w=0.52 l=0.15
X74 passgatex4_0.GN1 a_n1227_n2736# VSS.t153 VSS.t152 sky130_fd_pr__nfet_01v8 ad=0.1352 pd=1.56 as=0.0754 ps=0.81 w=0.52 l=0.15
X75 A4.t3 passgatex4_0.GP4 Z4.t2 VDD.t163 sky130_fd_pr__pfet_01v8_lvt ad=2.9 pd=20.58 as=2.9 ps=20.58 w=10 l=0.35
X76 Z4.t0 passgatex4_0.GN4 A4.t1 VSS.t27 sky130_fd_pr__nfet_01v8_lvt ad=2.32 pd=16.58 as=2.32 ps=16.58 w=8 l=0.35
X77 Z2.t2 passgatex4_0.GN2 A2.t3 VSS.t108 sky130_fd_pr__nfet_01v8_lvt ad=2.32 pd=16.58 as=2.32 ps=16.58 w=8 l=0.35
X78 VDD.t2 passgatesCtrl_0._03_ a_n1963_n3280# VDD.t0 sky130_fd_pr__pfet_01v8_hvt ad=0.11455 pd=1.08 as=0.2054 ps=2.1 w=0.79 l=0.15
X79 VSS.t38 a_n801_n4216# a_n988_n4394# VSS.t37 sky130_fd_pr__nfet_01v8 ad=0.097 pd=0.975 as=0.169 ps=1.82 w=0.65 l=0.15
X80 passgatesCtrl_0.net9 a_n2883_n1648# VDD.t144 VDD.t143 sky130_fd_pr__pfet_01v8_hvt ad=0.2054 pd=2.1 as=0.11455 ps=1.08 w=0.79 l=0.15
X81 VSS.t24 VDD.t187 VSS.t23 VSS.t22 sky130_fd_pr__nfet_01v8 ad=0.143 pd=1.62 as=0 ps=0 w=0.55 l=1.05
X82 VDD.t153 a_n539_n3518# a_n715_n3850# VDD.t152 sky130_fd_pr__pfet_01v8_hvt ad=0.0714 pd=0.76 as=0.0609 ps=0.71 w=0.42 l=0.15
X83 VSS.t36 passgatesCtrl_0._00_ a_n2883_n1648# VSS.t8 sky130_fd_pr__nfet_01v8 ad=0.0754 pd=0.81 as=0.1352 ps=1.56 w=0.52 l=0.15
X84 a_n1637_n1429# passgatesCtrl_0.net6 VDD.t148 VDD.t147 sky130_fd_pr__pfet_01v8_hvt ad=0.2054 pd=2.1 as=0.11455 ps=1.08 w=0.79 l=0.15
X85 VDD.t76 a_n801_n4216# a_n988_n4394# VDD.t75 sky130_fd_pr__pfet_01v8_hvt ad=0.14075 pd=1.325 as=0.26 ps=2.52 w=1 l=0.15
X86 VSS.t103 a_n1637_n1429# passgatex4_0.GN4 VSS.t8 sky130_fd_pr__nfet_01v8 ad=0.0754 pd=0.81 as=0.1352 ps=1.56 w=0.52 l=0.15
X87 VDD.t45 VSS.t187 VDD.t44 VDD.t28 sky130_fd_pr__pfet_01v8_hvt ad=0.2262 pd=2.26 as=0 ps=0 w=0.87 l=0.59
X88 VDD.t119 a_n2185_n2218# passgatesCtrl_0._00_ VDD.t118 sky130_fd_pr__pfet_01v8_hvt ad=0.14825 pd=1.34 as=0.27 ps=2.54 w=1 l=0.15
X89 Z2.t3 passgatex4_0.GN2 A2.t2 VSS.t108 sky130_fd_pr__nfet_01v8_lvt ad=2.32 pd=16.58 as=2.32 ps=16.58 w=8 l=0.35
X90 VSS.t149 a_n1084_n4216# a_n1135_n4368# VSS.t148 sky130_fd_pr__nfet_01v8 ad=0.097 pd=0.975 as=0.169 ps=1.82 w=0.65 l=0.15
X91 passgatesCtrl_0.net7 a_n675_n1648# VSS.t102 VSS.t8 sky130_fd_pr__nfet_01v8 ad=0.1352 pd=1.56 as=0.0754 ps=0.81 w=0.52 l=0.15
X92 VDD.t123 passgatesCtrl_0.net1.t8 passgatesCtrl_0.net10.t1 VDD.t122 sky130_fd_pr__pfet_01v8_hvt ad=0.26 pd=2.52 as=0.135 ps=1.27 w=1 l=0.15
X93 VDD.t157 a_n1084_n4216# a_n1135_n4368# VDD.t156 sky130_fd_pr__pfet_01v8_hvt ad=0.14075 pd=1.325 as=0.26 ps=2.52 w=1 l=0.15
X94 VSS.t101 a_n2185_n2218# passgatesCtrl_0._00_ VSS.t100 sky130_fd_pr__nfet_01v8 ad=0.101875 pd=0.99 as=0.1755 ps=1.84 w=0.65 l=0.15
X95 VSS.t93 passgatesCtrl_0.net2.t5 a_n539_n3518# VSS.t92 sky130_fd_pr__nfet_01v8 ad=0.1092 pd=1.36 as=0.1092 ps=1.36 w=0.42 l=0.15
X96 a_n1173_n2218# passgatesCtrl_0.net2.t6 VSS.t91 VSS.t90 sky130_fd_pr__nfet_01v8 ad=0.0567 pd=0.69 as=0.101875 ps=0.99 w=0.42 l=0.15
X97 VSS.t89 passgatesCtrl_0.net2.t7 a_n2161_n4368# VSS.t88 sky130_fd_pr__nfet_01v8 ad=0.097 pd=0.975 as=0.1092 ps=1.36 w=0.42 l=0.15
X98 VSS.t14 VDD.t188 VSS.t13 VSS.t12 sky130_fd_pr__nfet_01v8 ad=0.143 pd=1.62 as=0 ps=0 w=0.55 l=0.59
X99 passgatesCtrl_0.net6 a_n2975_n2192# VDD.t78 VDD.t77 sky130_fd_pr__pfet_01v8_hvt ad=0.2054 pd=2.1 as=0.11455 ps=1.08 w=0.79 l=0.15
X100 VDD.t43 VSS.t188 VDD.t42 VDD.t41 sky130_fd_pr__pfet_01v8_hvt ad=0.2262 pd=2.26 as=0 ps=0 w=0.87 l=0.59
X101 VSS.t17 VDD.t189 VSS.t16 VSS.t15 sky130_fd_pr__nfet_01v8 ad=0.143 pd=1.62 as=0 ps=0 w=0.55 l=0.59
X102 VDD.t82 a_n2639_n2040# passgatesCtrl_0._05_ VDD.t81 sky130_fd_pr__pfet_01v8_hvt ad=0.16655 pd=1.39 as=0.475 ps=2.95 w=1 l=0.15
X103 VSS.t61 VDD.t190 VSS.t60 VSS.t12 sky130_fd_pr__nfet_01v8 ad=0.143 pd=1.62 as=0 ps=0 w=0.55 l=0.59
X104 VSS.t64 VDD.t191 VSS.t63 VSS.t62 sky130_fd_pr__nfet_01v8 ad=0.143 pd=1.62 as=0 ps=0 w=0.55 l=1.05
X105 a_n2465_n2164# passgatesCtrl_0.net2.t8 VSS.t87 VSS.t86 sky130_fd_pr__nfet_01v8 ad=0.0567 pd=0.69 as=0.1118 ps=1.04 w=0.42 l=0.15
X106 VSS.t49 a_n2639_n2040# passgatesCtrl_0._05_ VSS.t48 sky130_fd_pr__nfet_01v8 ad=0.1118 pd=1.04 as=0.182 ps=1.86 w=0.65 l=0.15
X107 VDD.t158 passgatesCtrl_0.net4 a_n951_n2736# VDD.t99 sky130_fd_pr__pfet_01v8_hvt ad=0.11455 pd=1.08 as=0.2054 ps=2.1 w=0.79 l=0.15
X108 a_n2015_n2040# passgatesCtrl_0.net2.t9 VSS.t85 VSS.t84 sky130_fd_pr__nfet_01v8 ad=0.1092 pd=1.36 as=0.1575 ps=1.17 w=0.42 l=0.15
X109 VDD.t40 VSS.t189 VDD.t39 VDD.t13 sky130_fd_pr__pfet_01v8_hvt ad=0.2262 pd=2.26 as=0 ps=0 w=0.87 l=0.59
X110 VDD.t68 a_n1913_n1429# passgatex4_0.GP4 VDD.t67 sky130_fd_pr__pfet_01v8_hvt ad=0.11455 pd=1.08 as=0.2054 ps=2.1 w=0.79 l=0.15
X111 VDD.t6 passgatesCtrl_0._01_ a_n1503_n2192# VDD.t5 sky130_fd_pr__pfet_01v8_hvt ad=0.11455 pd=1.08 as=0.2054 ps=2.1 w=0.79 l=0.15
X112 VDD.t38 VSS.t190 VDD.t37 VDD.t36 sky130_fd_pr__pfet_01v8_hvt ad=0.2262 pd=2.26 as=0 ps=0 w=0.87 l=0.59
X113 VSS.t83 passgatesCtrl_0.net2.t10 passgatesCtrl_0.net3 VSS.t82 sky130_fd_pr__nfet_01v8 ad=0.169 pd=1.82 as=0.08775 ps=0.92 w=0.65 l=0.15
X114 A1.t3 passgatex4_0.GP1 Z1.t2 VDD.t171 sky130_fd_pr__pfet_01v8_lvt ad=2.9 pd=20.58 as=2.9 ps=20.58 w=10 l=0.35
X115 VSS.t128 a_n482_n4216# passgatesCtrl_0.net1.t0 VSS.t127 sky130_fd_pr__nfet_01v8 ad=0.097 pd=0.975 as=0.169 ps=1.82 w=0.65 l=0.15
X116 VDD.t136 select1.t1 a_n2480_n4368# VDD.t135 sky130_fd_pr__pfet_01v8_hvt ad=0.14075 pd=1.325 as=0.1092 ps=1.36 w=0.42 l=0.15
X117 a_n2185_n2218# passgatesCtrl_0.net1.t9 VSS.t126 VSS.t125 sky130_fd_pr__nfet_01v8 ad=0.0567 pd=0.69 as=0.101875 ps=0.99 w=0.42 l=0.15
X118 a_n1701_n4368# a_n1878_n4368# VSS.t162 VSS.t161 sky130_fd_pr__nfet_01v8 ad=0.169 pd=1.82 as=0.097 ps=0.975 w=0.65 l=0.15
X119 VDD.t142 a_n482_n4216# passgatesCtrl_0.net1.t1 VDD.t141 sky130_fd_pr__pfet_01v8_hvt ad=0.14075 pd=1.325 as=0.26 ps=2.52 w=1 l=0.15
X120 a_n1085_n1429# passgatesCtrl_0.net8 VSS.t50 VSS.t8 sky130_fd_pr__nfet_01v8 ad=0.1352 pd=1.56 as=0.0754 ps=0.81 w=0.52 l=0.15
X121 VDD.t35 VSS.t191 VDD.t34 VDD.t31 sky130_fd_pr__pfet_01v8_hvt ad=0.2262 pd=2.26 as=0 ps=0 w=0.87 l=4.73
X122 VSS.t44 VDD.t192 VSS.t43 VSS.t42 sky130_fd_pr__nfet_01v8 ad=0.143 pd=1.62 as=0 ps=0 w=0.55 l=1.97
X123 Z4.t1 passgatex4_0.GN4 A4.t0 VSS.t27 sky130_fd_pr__nfet_01v8_lvt ad=2.32 pd=16.58 as=2.32 ps=16.58 w=8 l=0.35
X124 a_n1701_n4368# a_n1878_n4368# VDD.t169 VDD.t168 sky130_fd_pr__pfet_01v8_hvt ad=0.26 pd=2.52 as=0.14075 ps=1.325 w=1 l=0.15
X125 passgatesCtrl_0.net10.t0 passgatesCtrl_0.net2.t11 VDD.t115 VDD.t114 sky130_fd_pr__pfet_01v8_hvt ad=0.135 pd=1.27 as=0.26 ps=2.52 w=1 l=0.15
X126 a_n2639_n2040# passgatesCtrl_0.net2.t12 VDD.t113 VDD.t112 sky130_fd_pr__pfet_01v8_hvt ad=0.0567 pd=0.69 as=0.16655 ps=1.39 w=0.42 l=0.15
X127 VDD.t102 passgatesCtrl_0.net1.t10 a_n1003_n2040# VDD.t101 sky130_fd_pr__pfet_01v8_hvt ad=0.1092 pd=1.36 as=0.1176 ps=1.4 w=0.42 l=0.15
X128 VSS.t3 passgatesCtrl_0._03_ a_n1963_n3280# VSS.t2 sky130_fd_pr__nfet_01v8 ad=0.0754 pd=0.81 as=0.1352 ps=1.56 w=0.52 l=0.15
X129 passgatesCtrl_0.net5 a_n1963_n3280# VDD.t1 VDD.t0 sky130_fd_pr__pfet_01v8_hvt ad=0.2054 pd=2.1 as=0.11455 ps=1.08 w=0.79 l=0.15
X130 a_n1084_n4216# a_n988_n4394# VDD.t132 VDD.t131 sky130_fd_pr__pfet_01v8_hvt ad=0.1092 pd=1.36 as=0.14075 ps=1.325 w=0.42 l=0.15
X131 a_n539_n3518# passgatesCtrl_0.net2.t13 VDD.t111 VDD.t110 sky130_fd_pr__pfet_01v8_hvt ad=0.1092 pd=1.36 as=0.0714 ps=0.76 w=0.42 l=0.15
X132 passgatesCtrl_0.net9 a_n2883_n1648# VSS.t129 VSS.t8 sky130_fd_pr__nfet_01v8 ad=0.1352 pd=1.56 as=0.0754 ps=0.81 w=0.52 l=0.15
X133 a_n1637_n1429# passgatesCtrl_0.net6 VSS.t132 VSS.t8 sky130_fd_pr__nfet_01v8 ad=0.1352 pd=1.56 as=0.0754 ps=0.81 w=0.52 l=0.15
X134 a_n801_n4216# passgatesCtrl_0.net1.t11 VDD.t174 VDD.t173 sky130_fd_pr__pfet_01v8_hvt ad=0.1092 pd=1.36 as=0.14075 ps=1.325 w=0.42 l=0.15
X135 a_n2639_n2040# passgatesCtrl_0.net1.t12 a_n2465_n2164# VSS.t144 sky130_fd_pr__nfet_01v8 ad=0.1176 pd=1.4 as=0.0567 ps=0.69 w=0.42 l=0.15
X136 A3.t3 passgatex4_0.GP3 Z3.t2 VDD.t172 sky130_fd_pr__pfet_01v8_lvt ad=2.9 pd=20.58 as=2.9 ps=20.58 w=10 l=0.35
X137 VDD.t12 a_n597_n2040# passgatesCtrl_0._02_ VDD.t11 sky130_fd_pr__pfet_01v8_hvt ad=0.14575 pd=1.335 as=0.34 ps=2.68 w=1 l=0.15
X138 VDD.t33 VSS.t192 VDD.t32 VDD.t31 sky130_fd_pr__pfet_01v8_hvt ad=0.2262 pd=2.26 as=0 ps=0 w=0.87 l=0.59
X139 VSS.t47 VDD.t193 VSS.t46 VSS.t45 sky130_fd_pr__nfet_01v8 ad=0.143 pd=1.62 as=0 ps=0 w=0.55 l=0.59
X140 a_n995_n3605# passgatesCtrl_0._04_ VDD.t96 VDD.t95 sky130_fd_pr__pfet_01v8_hvt ad=0.2054 pd=2.1 as=0.11455 ps=1.08 w=0.79 l=0.15
X141 a_n1507_n3280# passgatesCtrl_0.net2.t14 VSS.t81 VSS.t80 sky130_fd_pr__nfet_01v8 ad=0.0504 pd=0.66 as=0.1013 ps=0.99 w=0.42 l=0.15
X142 a_n1635_n3306# a_n1459_n3306# a_n1507_n3280# VSS.t176 sky130_fd_pr__nfet_01v8 ad=0.1092 pd=1.36 as=0.0504 ps=0.66 w=0.42 l=0.15
X143 VSS.t11 a_n597_n2040# passgatesCtrl_0._02_ VSS.t10 sky130_fd_pr__nfet_01v8 ad=0.10025 pd=0.985 as=0.169 ps=1.82 w=0.65 l=0.15
X144 VSS.t32 VDD.t194 VSS.t31 VSS.t30 sky130_fd_pr__nfet_01v8 ad=0.143 pd=1.62 as=0 ps=0 w=0.55 l=0.59
X145 A2.t0 passgatex4_0.GP2 Z2.t1 VDD.t85 sky130_fd_pr__pfet_01v8_lvt ad=2.9 pd=20.58 as=2.9 ps=20.58 w=10 l=0.35
X146 VDD.t30 VSS.t193 VDD.t29 VDD.t28 sky130_fd_pr__pfet_01v8_hvt ad=0.2262 pd=2.26 as=0 ps=0 w=0.87 l=0.59
X147 VSS.t151 passgatesCtrl_0.net4 a_n951_n2736# VSS.t150 sky130_fd_pr__nfet_01v8 ad=0.0754 pd=0.81 as=0.1352 ps=1.56 w=0.52 l=0.15
X148 VSS.t117 a_n715_n3850# passgatesCtrl_0._04_ VSS.t116 sky130_fd_pr__nfet_01v8 ad=0.1013 pd=0.99 as=0.169 ps=1.82 w=0.65 l=0.15
X149 VDD.t80 a_n1361_n1429# passgatex4_0.GN3 VDD.t79 sky130_fd_pr__pfet_01v8_hvt ad=0.11455 pd=1.08 as=0.2054 ps=2.1 w=0.79 l=0.15
X150 a_n1361_n1429# passgatesCtrl_0.net5 VDD.t10 VDD.t9 sky130_fd_pr__pfet_01v8_hvt ad=0.2054 pd=2.1 as=0.11455 ps=1.08 w=0.79 l=0.15
X151 VSS.t164 a_n2015_n2040# a_n2185_n2218# VSS.t163 sky130_fd_pr__nfet_01v8 ad=0.1575 pd=1.17 as=0.0567 ps=0.69 w=0.42 l=0.15
X152 VSS.t35 VDD.t195 VSS.t34 VSS.t33 sky130_fd_pr__nfet_01v8 ad=0.143 pd=1.62 as=0 ps=0 w=0.55 l=0.59
X153 VDD.t27 VSS.t194 VDD.t26 VDD.t25 sky130_fd_pr__pfet_01v8_hvt ad=0.2262 pd=2.26 as=0 ps=0 w=0.87 l=1.05
X154 VSS.t71 VDD.t196 VSS.t70 VSS.t69 sky130_fd_pr__nfet_01v8 ad=0.143 pd=1.62 as=0 ps=0 w=0.55 l=0.59
X155 VDD.t90 passgatesCtrl_0.net1.t13 a_n2639_n2040# VDD.t89 sky130_fd_pr__pfet_01v8_hvt ad=0.1176 pd=1.4 as=0.0567 ps=0.69 w=0.42 l=0.15
X156 a_n1045_n1942# passgatesCtrl_0.net2.t15 VDD.t109 VDD.t108 sky130_fd_pr__pfet_01v8_hvt ad=0.0441 pd=0.63 as=0.14825 ps=1.34 w=0.42 l=0.15
X157 VDD.t92 a_n2189_n1429# passgatex4_0.GP3 VDD.t91 sky130_fd_pr__pfet_01v8_hvt ad=0.11455 pd=1.08 as=0.2054 ps=2.1 w=0.79 l=0.15
X158 VSS.t124 passgatesCtrl_0._05_ a_n2975_n2192# VSS.t123 sky130_fd_pr__nfet_01v8 ad=0.0754 pd=0.81 as=0.1352 ps=1.56 w=0.52 l=0.15
X159 a_n482_n4216# select0.t1 VDD.t162 VDD.t161 sky130_fd_pr__pfet_01v8_hvt ad=0.1092 pd=1.36 as=0.14075 ps=1.325 w=0.42 l=0.15
X160 passgatesCtrl_0.net3 passgatesCtrl_0.net1.t14 VSS.t59 VSS.t58 sky130_fd_pr__nfet_01v8 ad=0.08775 pd=0.92 as=0.169 ps=1.82 w=0.65 l=0.15
X161 A1.t2 passgatex4_0.GP1 Z1.t3 VDD.t171 sky130_fd_pr__pfet_01v8_lvt ad=2.9 pd=20.58 as=2.9 ps=20.58 w=10 l=0.35
X162 VDD.t24 VSS.t195 VDD.t23 VDD.t22 sky130_fd_pr__pfet_01v8_hvt ad=0.2262 pd=2.26 as=0 ps=0 w=0.87 l=4.73
X163 VSS.t74 VDD.t197 VSS.t73 VSS.t72 sky130_fd_pr__nfet_01v8 ad=0.143 pd=1.62 as=0 ps=0 w=0.55 l=1.05
X164 VSS.t147 passgatesCtrl_0.net1.t15 a_n1459_n3306# VSS.t146 sky130_fd_pr__nfet_01v8 ad=0.1092 pd=1.36 as=0.1092 ps=1.36 w=0.42 l=0.15
X165 a_n1984_n4368# a_n2161_n4368# VSS.t110 VSS.t109 sky130_fd_pr__nfet_01v8 ad=0.169 pd=1.82 as=0.097 ps=0.975 w=0.65 l=0.15
X166 VSS.t18 a_n1913_n1429# passgatex4_0.GP4 VSS.t8 sky130_fd_pr__nfet_01v8 ad=0.0754 pd=0.81 as=0.1352 ps=1.56 w=0.52 l=0.15
X167 a_n1913_n1429# passgatesCtrl_0.net10.t4 VDD.t72 VDD.t71 sky130_fd_pr__pfet_01v8_hvt ad=0.2054 pd=2.1 as=0.11455 ps=1.08 w=0.79 l=0.15
X168 a_n1984_n4368# a_n2161_n4368# VDD.t130 VDD.t129 sky130_fd_pr__pfet_01v8_hvt ad=0.26 pd=2.52 as=0.14075 ps=1.325 w=1 l=0.15
X169 passgatesCtrl_0.net8 a_n1503_n2192# VDD.t70 VDD.t69 sky130_fd_pr__pfet_01v8_hvt ad=0.2054 pd=2.1 as=0.11455 ps=1.08 w=0.79 l=0.15
X170 a_n597_n2040# passgatesCtrl_0.net2.t16 a_n434_n1942# VDD.t107 sky130_fd_pr__pfet_01v8_hvt ad=0.1092 pd=1.36 as=0.0441 ps=0.63 w=0.42 l=0.15
X171 VDD.t106 passgatesCtrl_0.net2.t17 a_n2015_n2040# VDD.t71 sky130_fd_pr__pfet_01v8_hvt ad=0.1092 pd=1.36 as=0.1176 ps=1.4 w=0.42 l=0.15
X172 VDD.t94 a_n1984_n4368# a_n1878_n4368# VDD.t93 sky130_fd_pr__pfet_01v8_hvt ad=0.14075 pd=1.325 as=0.1092 ps=1.36 w=0.42 l=0.15
X173 a_n1635_n3306# passgatesCtrl_0.net2.t18 VDD.t105 VDD.t104 sky130_fd_pr__pfet_01v8_hvt ad=0.0609 pd=0.71 as=0.2279 ps=1.74 w=0.42 l=0.15
X174 passgatex4_0.GN2 a_n951_n2736# VDD.t100 VDD.t99 sky130_fd_pr__pfet_01v8_hvt ad=0.2054 pd=2.1 as=0.11455 ps=1.08 w=0.79 l=0.15
X175 VDD.t21 VSS.t196 VDD.t20 VDD.t19 sky130_fd_pr__pfet_01v8_hvt ad=0.2262 pd=2.26 as=0 ps=0 w=0.87 l=1.05
X176 passgatesCtrl_0.net5 a_n1963_n3280# VSS.t1 VSS.t0 sky130_fd_pr__nfet_01v8 ad=0.1352 pd=1.56 as=0.0754 ps=0.81 w=0.52 l=0.15
X177 a_n434_n1942# passgatesCtrl_0.net1.t16 VDD.t167 VDD.t166 sky130_fd_pr__pfet_01v8_hvt ad=0.0441 pd=0.63 as=0.14575 ps=1.335 w=0.42 l=0.15
X178 passgatex4_0.GP1 a_n491_n3280# VDD.t154 VDD.t0 sky130_fd_pr__pfet_01v8_hvt ad=0.2054 pd=2.1 as=0.11455 ps=1.08 w=0.79 l=0.15
X179 A4.t2 passgatex4_0.GP4 Z4.t3 VDD.t163 sky130_fd_pr__pfet_01v8_lvt ad=2.9 pd=20.58 as=2.9 ps=20.58 w=10 l=0.35
X180 VDD.t126 passgatesCtrl_0.net7 a_n491_n3280# VDD.t0 sky130_fd_pr__pfet_01v8_hvt ad=0.11455 pd=1.08 as=0.2054 ps=2.1 w=0.79 l=0.15
X181 a_n2057_n1942# passgatesCtrl_0.net1.t17 VDD.t88 VDD.t87 sky130_fd_pr__pfet_01v8_hvt ad=0.0441 pd=0.63 as=0.14825 ps=1.34 w=0.42 l=0.15
X182 Z1.t0 passgatex4_0.GN1 A1.t1 VSS.t166 sky130_fd_pr__nfet_01v8_lvt ad=2.32 pd=16.58 as=2.32 ps=16.58 w=8 l=0.35
X183 a_n995_n3605# passgatesCtrl_0._04_ VSS.t57 VSS.t56 sky130_fd_pr__nfet_01v8 ad=0.1352 pd=1.56 as=0.0754 ps=0.81 w=0.52 l=0.15
X184 VDD.t18 VSS.t197 VDD.t17 VDD.t16 sky130_fd_pr__pfet_01v8_hvt ad=0.2262 pd=2.26 as=0 ps=0 w=0.87 l=0.59
X185 a_n597_n2040# passgatesCtrl_0.net1.t18 VSS.t170 VSS.t169 sky130_fd_pr__nfet_01v8 ad=0.0567 pd=0.69 as=0.10025 ps=0.985 w=0.42 l=0.15
X186 passgatesCtrl_0.net3 passgatesCtrl_0.net2.t19 a_n485_n2736# VDD.t103 sky130_fd_pr__pfet_01v8_hvt ad=0.26 pd=2.52 as=0.105 ps=1.21 w=1 l=0.15
X187 VDD.t151 passgatesCtrl_0.net3 a_n1227_n2736# VDD.t99 sky130_fd_pr__pfet_01v8_hvt ad=0.11455 pd=1.08 as=0.2054 ps=2.1 w=0.79 l=0.15
X188 Z1.t1 passgatex4_0.GN1 A1.t0 VSS.t165 sky130_fd_pr__nfet_01v8_lvt ad=2.32 pd=16.58 as=2.32 ps=16.58 w=8 l=0.35
X189 VDD.t165 passgatesCtrl_0._02_ a_n675_n1648# VDD.t164 sky130_fd_pr__pfet_01v8_hvt ad=0.11455 pd=1.08 as=0.2054 ps=2.1 w=0.79 l=0.15
X190 VDD.t15 VSS.t198 VDD.t14 VDD.t13 sky130_fd_pr__pfet_01v8_hvt ad=0.2262 pd=2.26 as=0 ps=0 w=0.87 l=2.89
X191 a_n485_n2736# passgatesCtrl_0.net1.t19 VDD.t160 VDD.t103 sky130_fd_pr__pfet_01v8_hvt ad=0.105 pd=1.21 as=0.26 ps=2.52 w=1 l=0.15
R0 passgatesCtrl_0.net2.n5 passgatesCtrl_0.net2.t15 562.236
R1 passgatesCtrl_0.net2.t15 passgatesCtrl_0.net2.t6 392.027
R2 passgatesCtrl_0.net2.n21 passgatesCtrl_0.net2.t13 327.99
R3 passgatesCtrl_0.net2.n2 passgatesCtrl_0.net2.t3 323.55
R4 passgatesCtrl_0.net2.n1 passgatesCtrl_0.net2.t0 319.171
R5 passgatesCtrl_0.net2.n18 passgatesCtrl_0.net2.t14 293.969
R6 passgatesCtrl_0.net2.n13 passgatesCtrl_0.net2.t12 261.887
R7 passgatesCtrl_0.net2.n6 passgatesCtrl_0.net2.t19 230.363
R8 passgatesCtrl_0.net2.n15 passgatesCtrl_0.net2.t11 229.369
R9 passgatesCtrl_0.net2 passgatesCtrl_0.net2.t1 209.923
R10 passgatesCtrl_0.net2.n21 passgatesCtrl_0.net2.t5 199.457
R11 passgatesCtrl_0.net2.n2 passgatesCtrl_0.net2.t7 195.017
R12 passgatesCtrl_0.net2.n8 passgatesCtrl_0.net2.t2 192.639
R13 passgatesCtrl_0.net2.n11 passgatesCtrl_0.net2.t9 185.376
R14 passgatesCtrl_0.net2.n6 passgatesCtrl_0.net2.t10 158.064
R15 passgatesCtrl_0.net2.n15 passgatesCtrl_0.net2.t4 157.07
R16 passgatesCtrl_0.net2.n13 passgatesCtrl_0.net2.t8 155.847
R17 passgatesCtrl_0.net2 passgatesCtrl_0.net2.n8 154.286
R18 passgatesCtrl_0.net2 passgatesCtrl_0.net2.n18 154.065
R19 passgatesCtrl_0.net2.n16 passgatesCtrl_0.net2.n15 153.66
R20 passgatesCtrl_0.net2 passgatesCtrl_0.net2.n2 153.409
R21 passgatesCtrl_0.net2.n7 passgatesCtrl_0.net2.n6 153.097
R22 passgatesCtrl_0.net2.n22 passgatesCtrl_0.net2.n21 152
R23 passgatesCtrl_0.net2.n14 passgatesCtrl_0.net2.n13 152
R24 passgatesCtrl_0.net2.n12 passgatesCtrl_0.net2.n11 152
R25 passgatesCtrl_0.net2.n18 passgatesCtrl_0.net2.t18 138.338
R26 passgatesCtrl_0.net2.n11 passgatesCtrl_0.net2.t17 137.177
R27 passgatesCtrl_0.net2.n8 passgatesCtrl_0.net2.t16 134.799
R28 passgatesCtrl_0.net2.n10 passgatesCtrl_0.net2.n5 26.6879
R29 passgatesCtrl_0.net2.n23 passgatesCtrl_0.net2 24.7034
R30 passgatesCtrl_0.net2.n17 passgatesCtrl_0.net2.n16 21.1865
R31 passgatesCtrl_0.net2.n9 passgatesCtrl_0.net2.n7 21.1676
R32 passgatesCtrl_0.net2.n24 passgatesCtrl_0.net2.n23 17.5163
R33 passgatesCtrl_0.net2.n4 passgatesCtrl_0.net2 16.0005
R34 passgatesCtrl_0.net2.n19 passgatesCtrl_0.net2 15.4844
R35 passgatesCtrl_0.net2.n9 passgatesCtrl_0.net2 11.2434
R36 passgatesCtrl_0.net2.n0 passgatesCtrl_0.net2.n12 10.8365
R37 passgatesCtrl_0.net2.n17 passgatesCtrl_0.net2.n14 10.1066
R38 passgatesCtrl_0.net2 passgatesCtrl_0.net2.n19 10.0713
R39 passgatesCtrl_0.net2 passgatesCtrl_0.net2.n22 9.6005
R40 passgatesCtrl_0.net2.n0 passgatesCtrl_0.net2.n10 9.15538
R41 passgatesCtrl_0.net2.n5 passgatesCtrl_0.net2 8.92171
R42 passgatesCtrl_0.net2.n24 passgatesCtrl_0.net2.n4 8.88939
R43 passgatesCtrl_0.net2.n20 passgatesCtrl_0.net2.n0 8.61863
R44 passgatesCtrl_0.net2 passgatesCtrl_0.net2.n24 7.82272
R45 passgatesCtrl_0.net2 passgatesCtrl_0.net2.n1 7.73474
R46 passgatesCtrl_0.net2.n10 passgatesCtrl_0.net2.n9 7.03724
R47 passgatesCtrl_0.net2 passgatesCtrl_0.net2.n3 6.34564
R48 passgatesCtrl_0.net2.n4 passgatesCtrl_0.net2 6.0165
R49 passgatesCtrl_0.net2.n4 passgatesCtrl_0.net2 5.7605
R50 passgatesCtrl_0.net2.n20 passgatesCtrl_0.net2 5.25599
R51 passgatesCtrl_0.net2.n22 passgatesCtrl_0.net2 4.90717
R52 passgatesCtrl_0.net2.n16 passgatesCtrl_0.net2 4.26717
R53 passgatesCtrl_0.net2.n14 passgatesCtrl_0.net2 3.8405
R54 passgatesCtrl_0.net2.n19 passgatesCtrl_0.net2 3.51018
R55 passgatesCtrl_0.net2.n7 passgatesCtrl_0.net2 3.10907
R56 passgatesCtrl_0.net2.n12 passgatesCtrl_0.net2 3.0725
R57 passgatesCtrl_0.net2.n0 passgatesCtrl_0.net2.n17 2.62704
R58 passgatesCtrl_0.net2.n1 passgatesCtrl_0.net2 2.48634
R59 passgatesCtrl_0.net2.n23 passgatesCtrl_0.net2.n20 2.2972
R60 passgatesCtrl_0.net2.n3 passgatesCtrl_0.net2 2.19479
R61 passgatesCtrl_0.net2.n3 passgatesCtrl_0.net2 1.80756
R62 VSS.t165 VSS.n7 13018.9
R63 VSS.n115 VSS.n114 12462.1
R64 VSS.n108 VSS.n92 12047.7
R65 VSS.n135 VSS.n94 11744.7
R66 VSS.n135 VSS.n95 11744.7
R67 VSS.n94 VSS.n93 11744.7
R68 VSS.n95 VSS.n93 11744.7
R69 VSS.n121 VSS.n100 11744.7
R70 VSS.n121 VSS.n101 11744.7
R71 VSS.n120 VSS.n100 11744.7
R72 VSS.n120 VSS.n101 11744.7
R73 VSS.n113 VSS.n102 11744.7
R74 VSS.n109 VSS.n102 11744.7
R75 VSS.n113 VSS.n103 11744.7
R76 VSS.n109 VSS.n103 11744.7
R77 VSS.n562 VSS.n4 11744.7
R78 VSS.n562 VSS.n5 11744.7
R79 VSS.n560 VSS.n5 11744.7
R80 VSS.n560 VSS.n4 11744.7
R81 VSS.n387 VSS 10843
R82 VSS.n387 VSS.n386 10123.6
R83 VSS.n386 VSS.n385 10123.6
R84 VSS.n137 VSS.n136 3869.02
R85 VSS.n136 VSS.n91 3771.63
R86 VSS.n116 VSS.n91 3735.78
R87 VSS.n561 VSS.n6 3570.22
R88 VSS.n558 VSS.t165 2593.05
R89 VSS.t165 VSS 2390.62
R90 VSS.n561 VSS.n558 2369.23
R91 VSS.t69 VSS.t138 2326.44
R92 VSS.n388 VSS.t19 1938.7
R93 VSS VSS.t12 1694.25
R94 VSS VSS.t15 1601.53
R95 VSS.n386 VSS 1601.53
R96 VSS VSS.n387 1601.53
R97 VSS.t176 VSS.t146 1584.67
R98 VSS.t0 VSS.t77 1567.82
R99 VSS.t163 VSS.t84 1517.24
R100 VSS VSS.t30 1407.66
R101 VSS.t166 VSS.n6 1392.06
R102 VSS VSS.t100 1340.23
R103 VSS VSS.t4 1230.65
R104 VSS.t120 VSS.t158 1219.28
R105 VSS.n384 VSS.n383 1194.5
R106 VSS.n254 VSS.t48 1194.5
R107 VSS.n557 VSS.n556 1194.5
R108 VSS.n389 VSS.n388 1194.5
R109 VSS VSS.t62 1019.92
R110 VSS.t19 VSS 1019.92
R111 VSS VSS.t10 977.779
R112 VSS.t48 VSS 918.774
R113 VSS.t30 VSS 918.774
R114 VSS.n388 VSS 918.774
R115 VSS.t138 VSS 918.774
R116 VSS.t48 VSS.t86 910.346
R117 VSS.t22 VSS 893.633
R118 VSS VSS.n6 851.341
R119 VSS.n558 VSS 851.341
R120 VSS.t127 VSS.t167 848.193
R121 VSS.t88 VSS.t133 848.193
R122 VSS.t100 VSS.t125 826.054
R123 VSS.t116 VSS.t114 826.054
R124 VSS.t106 VSS.t80 826.054
R125 VSS.t42 VSS.t116 792.337
R126 VSS.n112 VSS.n111 767.294
R127 VSS.n559 VSS.n3 767.294
R128 VSS.n131 VSS.n130 763.106
R129 VSS.n119 VSS.n99 763.106
R130 VSS.t33 VSS 742.169
R131 VSS.t150 VSS.t66 741.763
R132 VSS.t6 VSS.t25 741.763
R133 VSS.t39 VSS.t123 741.763
R134 VSS.t104 VSS.t92 741.763
R135 VSS.t4 VSS.t56 741.763
R136 VSS.t2 VSS.t0 741.763
R137 VSS.n130 VSS.n96 732.236
R138 VSS.n123 VSS.n99 732.236
R139 VSS.n112 VSS.n104 732.236