* NGSPICE file created from mux4onehot_b_parax.ext - technology: sky130A

.subckt mux4onehot_b_parax select1 select2 A1 A3 Z1 A2 A4 select0 Z4 Z3 VDD Z2 VSS
+ nselect2
X0 A2.t1 x2.GP2.t4 Z2.t0 VDD.t19 sky130_fd_pr__pfet_01v8_lvt ad=2.9 pd=20.58 as=2.9 ps=20.58 w=10 l=0.35
X1 VDD.t5 a_5275_n4059# a_5275_n4235# VDD.t4 sky130_fd_pr__pfet_01v8_hvt ad=0.0714 pd=0.76 as=0.0609 ps=0.71 w=0.42 l=0.15
X2 A1.t2 x2.GP1.t4 Z1.t2 VDD.t53 sky130_fd_pr__pfet_01v8_lvt ad=2.9 pd=20.58 as=2.9 ps=20.58 w=10 l=0.35
X3 VSS.t56 select0.t0 a_5275_n3507# VSS.t55 sky130_fd_pr__nfet_01v8 ad=0.1092 pd=1.36 as=0.1092 ps=1.36 w=0.42 l=0.15
X4 a_5275_n3683# a_5275_n3507# a_5301_n3555# VSS.t59 sky130_fd_pr__nfet_01v8 ad=0.1092 pd=1.36 as=0.0504 ps=0.66 w=0.42 l=0.15
X5 A4.t3 x2.GP4.t4 Z4.t2 VDD.t3 sky130_fd_pr__pfet_01v8_lvt ad=2.9 pd=20.58 as=2.9 ps=20.58 w=10 l=0.35
X6 VSS.t17 select1.t0 x1.nSEL1 VSS.t16 sky130_fd_pr__nfet_01v8 ad=0.169 pd=1.82 as=0.08775 ps=0.92 w=0.65 l=0.15
X7 VSS.t32 x2.GN2 x2.GP2.t3 VSS.t31 sky130_fd_pr__nfet_01v8 ad=0.169 pd=1.82 as=0.08775 ps=0.92 w=0.65 l=0.15
X8 x1.nSEL0 select0.t1 VSS.t54 VSS.t53 sky130_fd_pr__nfet_01v8 ad=0.08775 pd=0.92 as=0.169 ps=1.82 w=0.65 l=0.15
X9 VSS.t27 a_5275_n4651# x2.GN1.t1 VSS.t26 sky130_fd_pr__nfet_01v8 ad=0.1118 pd=1.04 as=0.182 ps=1.86 w=0.65 l=0.15
X10 VDD.t52 select0.t2 x1.nSEL0 VDD.t51 sky130_fd_pr__pfet_01v8_hvt ad=0.26 pd=2.52 as=0.135 ps=1.27 w=1 l=0.15
X11 x2.GP1.t0 x2.GN1.t2 VSS.t37 VSS.t36 sky130_fd_pr__nfet_01v8 ad=0.08775 pd=0.92 as=0.169 ps=1.82 w=0.65 l=0.15
X12 VSS.t43 x2.GN1.t3 x2.GP1.t1 VSS.t42 sky130_fd_pr__nfet_01v8 ad=0.169 pd=1.82 as=0.08775 ps=0.92 w=0.65 l=0.15
X13 x2.GP4.t0 x2.GN4.t2 VDD.t9 VDD.t8 sky130_fd_pr__pfet_01v8_hvt ad=0.135 pd=1.27 as=0.26 ps=2.52 w=1 l=0.15
X14 VDD.t63 x2.GN4.t3 x2.GP4.t3 VDD.t62 sky130_fd_pr__pfet_01v8_hvt ad=0.26 pd=2.52 as=0.135 ps=1.27 w=1 l=0.15
X15 a_5275_n4059# select1.t1 VDD.t18 VDD.t17 sky130_fd_pr__pfet_01v8_hvt ad=0.1092 pd=1.36 as=0.0714 ps=0.76 w=0.42 l=0.15
X16 VSS.t11 VDD.t71 VSS.t10 VSS.t9 sky130_fd_pr__nfet_01v8 ad=0.143 pd=1.62 as=0 ps=0 w=0.55 l=1.05
X17 a_5301_n4107# select0.t3 VSS.t52 VSS.t51 sky130_fd_pr__nfet_01v8 ad=0.0504 pd=0.66 as=0.1013 ps=0.99 w=0.42 l=0.15
X18 VSS.t61 a_5275_n4235# x2.GN2 VSS.t60 sky130_fd_pr__nfet_01v8 ad=0.1013 pd=0.99 as=0.169 ps=1.82 w=0.65 l=0.15
X19 a_5275_n4651# x1.nSEL1 VDD.t14 VDD.t13 sky130_fd_pr__pfet_01v8_hvt ad=0.0567 pd=0.69 as=0.16655 ps=1.39 w=0.42 l=0.15
X20 VSS.t8 VDD.t72 VSS.t7 VSS.t6 sky130_fd_pr__nfet_01v8 ad=0.143 pd=1.62 as=0 ps=0 w=0.55 l=1.05
X21 a_5275_n3507# select0.t4 VDD.t16 VDD.t15 sky130_fd_pr__pfet_01v8_hvt ad=0.1092 pd=1.36 as=0.0714 ps=0.76 w=0.42 l=0.15
X22 a_5275_n4235# select0.t5 VDD.t44 VDD.t43 sky130_fd_pr__pfet_01v8_hvt ad=0.0609 pd=0.71 as=0.2279 ps=1.74 w=0.42 l=0.15
X23 VDD.t42 x1.nSEL0 a_5275_n4651# VDD.t41 sky130_fd_pr__pfet_01v8_hvt ad=0.1176 pd=1.4 as=0.0567 ps=0.69 w=0.42 l=0.15
X24 VDD.t50 a_5275_n3507# a_5275_n3683# VDD.t49 sky130_fd_pr__pfet_01v8_hvt ad=0.0714 pd=0.76 as=0.0609 ps=0.71 w=0.42 l=0.15
X25 VDD.t48 a_5275_n3683# x2.GN3 VDD.t47 sky130_fd_pr__pfet_01v8_hvt ad=0.2279 pd=1.74 as=0.26 ps=2.52 w=1 l=0.15
X26 VSS.t39 a_5275_n2995# x2.GN4.t1 VSS.t38 sky130_fd_pr__nfet_01v8 ad=0.1118 pd=1.04 as=0.182 ps=1.86 w=0.65 l=0.15
X27 nselect2.t1 select2.t0 VDD.t40 VDD.t39 sky130_fd_pr__pfet_01v8_hvt ad=0.135 pd=1.27 as=0.26 ps=2.52 w=1 l=0.15
X28 A3.t3 x2.GP3 Z3.t2 VDD.t70 sky130_fd_pr__pfet_01v8_lvt ad=2.9 pd=20.58 as=2.9 ps=20.58 w=10 l=0.35
X29 VSS.t50 select0.t6 x1.nSEL0 VSS.t49 sky130_fd_pr__nfet_01v8 ad=0.169 pd=1.82 as=0.08775 ps=0.92 w=0.65 l=0.15
X30 Z3.t0 x2.GN3 A3.t1 VSS.t25 sky130_fd_pr__nfet_01v8_lvt ad=2.32 pd=16.58 as=2.32 ps=16.58 w=8 l=0.35
X31 Z3.t1 x2.GN3 A3.t0 VSS.t25 sky130_fd_pr__nfet_01v8_lvt ad=2.32 pd=16.58 as=2.32 ps=16.58 w=8 l=0.35
X32 VDD.t65 select2.t1 nselect2.t0 VDD.t64 sky130_fd_pr__pfet_01v8_hvt ad=0.26 pd=2.52 as=0.135 ps=1.27 w=1 l=0.15
X33 x2.GP4.t1 x2.GN4.t4 VSS.t45 VSS.t44 sky130_fd_pr__nfet_01v8 ad=0.08775 pd=0.92 as=0.169 ps=1.82 w=0.65 l=0.15
X34 x2.GP3 x2.GN3 VDD.t30 VDD.t29 sky130_fd_pr__pfet_01v8_hvt ad=0.135 pd=1.27 as=0.26 ps=2.52 w=1 l=0.15
X35 x1.nSEL1 select1.t2 VDD.t67 VDD.t66 sky130_fd_pr__pfet_01v8_hvt ad=0.135 pd=1.27 as=0.26 ps=2.52 w=1 l=0.15
X36 x2.GP2.t0 x2.GN2 VDD.t36 VDD.t35 sky130_fd_pr__pfet_01v8_hvt ad=0.135 pd=1.27 as=0.26 ps=2.52 w=1 l=0.15
X37 VDD.t12 VSS.t68 VDD.t11 VDD.t10 sky130_fd_pr__pfet_01v8_hvt ad=0.2262 pd=2.26 as=0 ps=0 w=0.87 l=1.05
X38 VSS.t65 x2.GN4.t5 x2.GP4.t2 VSS.t64 sky130_fd_pr__nfet_01v8 ad=0.169 pd=1.82 as=0.08775 ps=0.92 w=0.65 l=0.15
X39 VSS.t5 VDD.t73 VSS.t4 VSS.t3 sky130_fd_pr__nfet_01v8 ad=0.143 pd=1.62 as=0 ps=0 w=0.55 l=1.05
X40 a_5329_n4513# x1.nSEL1 VSS.t15 VSS.t14 sky130_fd_pr__nfet_01v8 ad=0.0567 pd=0.69 as=0.1118 ps=1.04 w=0.42 l=0.15
X41 VDD.t2 VSS.t69 VDD.t1 VDD.t0 sky130_fd_pr__pfet_01v8_hvt ad=0.2262 pd=2.26 as=0 ps=0 w=0.87 l=1.05
X42 a_5275_n4651# x1.nSEL0 a_5329_n4513# VSS.t46 sky130_fd_pr__nfet_01v8 ad=0.1176 pd=1.4 as=0.0567 ps=0.69 w=0.42 l=0.15
X43 A4.t2 x2.GP4.t5 Z4.t3 VDD.t3 sky130_fd_pr__pfet_01v8_lvt ad=2.9 pd=20.58 as=2.9 ps=20.58 w=10 l=0.35
X44 a_5275_n2995# select0.t7 VDD.t21 VDD.t20 sky130_fd_pr__pfet_01v8_hvt ad=0.0567 pd=0.69 as=0.16655 ps=1.39 w=0.42 l=0.15
X45 VDD.t28 x2.GN3 x2.GP3 VDD.t27 sky130_fd_pr__pfet_01v8_hvt ad=0.26 pd=2.52 as=0.135 ps=1.27 w=1 l=0.15
X46 VDD.t32 a_5275_n4651# x2.GN1.t0 VDD.t31 sky130_fd_pr__pfet_01v8_hvt ad=0.16655 pd=1.39 as=0.475 ps=2.95 w=1 l=0.15
X47 Z4.t1 x2.GN4.t6 A4.t1 VSS.t12 sky130_fd_pr__nfet_01v8_lvt ad=2.32 pd=16.58 as=2.32 ps=16.58 w=8 l=0.35
X48 VSS.t2 VDD.t74 VSS.t1 VSS.t0 sky130_fd_pr__nfet_01v8 ad=0.143 pd=1.62 as=0 ps=0 w=0.55 l=1.05
X49 Z4.t0 x2.GN4.t7 A4.t0 VSS.t12 sky130_fd_pr__nfet_01v8_lvt ad=2.32 pd=16.58 as=2.32 ps=16.58 w=8 l=0.35
X50 VDD.t7 select1.t3 a_5275_n2995# VDD.t6 sky130_fd_pr__pfet_01v8_hvt ad=0.1176 pd=1.4 as=0.0567 ps=0.69 w=0.42 l=0.15
X51 a_5275_n3683# select1.t4 VDD.t56 VDD.t27 sky130_fd_pr__pfet_01v8_hvt ad=0.0609 pd=0.71 as=0.2279 ps=1.74 w=0.42 l=0.15
X52 nselect2.t3 select2.t2 VSS.t20 VSS.t19 sky130_fd_pr__nfet_01v8 ad=0.08775 pd=0.92 as=0.169 ps=1.82 w=0.65 l=0.15
X53 a_5275_n4235# a_5275_n4059# a_5301_n4107# VSS.t13 sky130_fd_pr__nfet_01v8 ad=0.1092 pd=1.36 as=0.0504 ps=0.66 w=0.42 l=0.15
X54 VSS.t35 select2.t3 nselect2.t2 VSS.t34 sky130_fd_pr__nfet_01v8 ad=0.169 pd=1.82 as=0.08775 ps=0.92 w=0.65 l=0.15
X55 x2.GP3 x2.GN3 VSS.t24 VSS.t23 sky130_fd_pr__nfet_01v8 ad=0.08775 pd=0.92 as=0.169 ps=1.82 w=0.65 l=0.15
X56 VDD.t59 VSS.t70 VDD.t58 VDD.t57 sky130_fd_pr__pfet_01v8_hvt ad=0.2262 pd=2.26 as=0 ps=0 w=0.87 l=1.05
X57 A2.t0 x2.GP2.t5 Z2.t1 VDD.t19 sky130_fd_pr__pfet_01v8_lvt ad=2.9 pd=20.58 as=2.9 ps=20.58 w=10 l=0.35
X58 VDD.t61 select1.t5 x1.nSEL1 VDD.t60 sky130_fd_pr__pfet_01v8_hvt ad=0.26 pd=2.52 as=0.135 ps=1.27 w=1 l=0.15
X59 x1.nSEL1 select1.t6 VSS.t67 VSS.t66 sky130_fd_pr__nfet_01v8 ad=0.08775 pd=0.92 as=0.169 ps=1.82 w=0.65 l=0.15
X60 x2.GP2.t2 x2.GN2 VSS.t30 VSS.t29 sky130_fd_pr__nfet_01v8 ad=0.08775 pd=0.92 as=0.169 ps=1.82 w=0.65 l=0.15
X61 VDD.t55 a_5275_n4235# x2.GN2 VDD.t54 sky130_fd_pr__pfet_01v8_hvt ad=0.2279 pd=1.74 as=0.26 ps=2.52 w=1 l=0.15
X62 Z2.t2 x2.GN2 A2.t3 VSS.t28 sky130_fd_pr__nfet_01v8_lvt ad=2.32 pd=16.58 as=2.32 ps=16.58 w=8 l=0.35
X63 a_5329_n2857# select0.t8 VSS.t48 VSS.t47 sky130_fd_pr__nfet_01v8 ad=0.0567 pd=0.69 as=0.1118 ps=1.04 w=0.42 l=0.15
X64 A1.t1 x2.GP1.t5 Z1.t1 VDD.t53 sky130_fd_pr__pfet_01v8_lvt ad=2.9 pd=20.58 as=2.9 ps=20.58 w=10 l=0.35
X65 Z2.t3 x2.GN2 A2.t2 VSS.t28 sky130_fd_pr__nfet_01v8_lvt ad=2.32 pd=16.58 as=2.32 ps=16.58 w=8 l=0.35
X66 VDD.t38 a_5275_n2995# x2.GN4.t0 VDD.t37 sky130_fd_pr__pfet_01v8_hvt ad=0.16655 pd=1.39 as=0.475 ps=2.95 w=1 l=0.15
X67 VDD.t24 VSS.t71 VDD.t23 VDD.t22 sky130_fd_pr__pfet_01v8_hvt ad=0.2262 pd=2.26 as=0 ps=0 w=0.87 l=1.05
X68 VSS.t22 x2.GN3 x2.GP3 VSS.t21 sky130_fd_pr__nfet_01v8 ad=0.169 pd=1.82 as=0.08775 ps=0.92 w=0.65 l=0.15
X69 VDD.t34 x2.GN2 x2.GP2.t1 VDD.t33 sky130_fd_pr__pfet_01v8_hvt ad=0.26 pd=2.52 as=0.135 ps=1.27 w=1 l=0.15
X70 x1.nSEL0 select0.t9 VDD.t26 VDD.t25 sky130_fd_pr__pfet_01v8_hvt ad=0.135 pd=1.27 as=0.26 ps=2.52 w=1 l=0.15
X71 Z1.t3 x2.GN1.t4 A1.t3 VSS.t18 sky130_fd_pr__nfet_01v8_lvt ad=2.32 pd=16.58 as=2.32 ps=16.58 w=8 l=0.35
X72 x2.GP1.t2 x2.GN1.t5 VDD.t46 VDD.t45 sky130_fd_pr__pfet_01v8_hvt ad=0.135 pd=1.27 as=0.26 ps=2.52 w=1 l=0.15
X73 Z1.t0 x2.GN1.t6 A1.t0 VSS.t18 sky130_fd_pr__nfet_01v8_lvt ad=2.32 pd=16.58 as=2.32 ps=16.58 w=8 l=0.35
X74 a_5275_n2995# select1.t7 a_5329_n2857# VSS.t33 sky130_fd_pr__nfet_01v8 ad=0.1176 pd=1.4 as=0.0567 ps=0.69 w=0.42 l=0.15
X75 a_5301_n3555# select1.t8 VSS.t41 VSS.t40 sky130_fd_pr__nfet_01v8 ad=0.0504 pd=0.66 as=0.1013 ps=0.99 w=0.42 l=0.15
X76 VSS.t58 a_5275_n3683# x2.GN3 VSS.t57 sky130_fd_pr__nfet_01v8 ad=0.1013 pd=0.99 as=0.169 ps=1.82 w=0.65 l=0.15
X77 VSS.t63 select1.t9 a_5275_n4059# VSS.t62 sky130_fd_pr__nfet_01v8 ad=0.1092 pd=1.36 as=0.1092 ps=1.36 w=0.42 l=0.15
X78 VDD.t69 x2.GN1.t7 x2.GP1.t3 VDD.t68 sky130_fd_pr__pfet_01v8_hvt ad=0.26 pd=2.52 as=0.135 ps=1.27 w=1 l=0.15
X79 A3.t2 x2.GP3 Z3.t3 VDD.t70 sky130_fd_pr__pfet_01v8_lvt ad=2.9 pd=20.58 as=2.9 ps=20.58 w=10 l=0.35
R0 x2.GP2.n4 x2.GP2.t4 450.938
R1 x2.GP2.n4 x2.GP2.t5 445.666
R2 x2.GP2.n5 x2.GP2.n3 195.958
R3 x2.GP2.n1 x2.GP2.n0 101.49
R4 x2.GP2.n3 x2.GP2.t1 26.5955
R5 x2.GP2.n3 x2.GP2.t0 26.5955
R6 x2.GP2.n0 x2.GP2.t3 24.9236
R7 x2.GP2.n0 x2.GP2.t2 24.9236
R8 x1.gpo1 x2.x2.GP 13.129
R9 x2.GP2.n5 x1.gpo1 11.995
R10 x2.GP2.n2 x1.x12.Y 10.7525
R11 x1.x12.Y x2.GP2.n5 7.96524
R12 x2.GP2.n2 x1.x12.Y 6.6565
R13 x1.x12.Y x2.GP2.n2 5.04292
R14 x2.x2.GP x2.GP2.n4 2.94361
R15 x1.x12.Y x2.GP2.n1 2.5605
R16 x2.GP2.n1 x1.x12.Y 1.93989
R17 Z2.n1 Z2.t1 23.6581
R18 Z2.n3 Z2.t0 23.3739
R19 Z2.n1 Z2.t2 10.7528
R20 Z2.n0 Z2.t3 10.6417
R21 Z2.n2 Z2.n1 1.30064
R22 Z2.n5 Z2.n4 0.936641
R23 Z2.n3 Z2.n2 0.726502
R24 Z2.n2 Z2.n0 0.512491
R25 Z2.n4 Z2.n0 0.359663
R26 Z2.n4 Z2.n3 0.216071
R27 Z2.n5 Z2 0.0776605
R28 Z2 Z2.n5 0.0561931
R29 A2.n1 A2.t1 26.3998
R30 A2.n1 A2.t0 23.5483
R31 A2.n0 A2.t2 12.7127
R32 A2.n0 A2.t3 10.8578
R33 A2.n2 A2.n1 3.12177
R34 A2.n2 A2.n0 1.81453
R35 A2.n3 A2.n2 1.1255
R36 A2.n3 A2 0.219402
R37 A2 A2.n3 0.0655
R38 VDD.n57 VDD.n55 8629.41
R39 VDD.n60 VDD.n54 8629.41
R40 VDD.n40 VDD.n39 8629.41
R41 VDD.n42 VDD.n37 8629.41
R42 VDD.n23 VDD.n22 8629.41
R43 VDD.n25 VDD.n20 8629.41
R44 VDD.n6 VDD.n4 8629.41
R45 VDD.n9 VDD.n3 8629.41
R46 VDD.n56 VDD.n53 920.471
R47 VDD.n43 VDD.n36 920.471
R48 VDD.n26 VDD.n19 920.471
R49 VDD.n5 VDD.n2 920.471
R50 VDD.n62 VDD.n53 914.447
R51 VDD.n45 VDD.n43 914.447
R52 VDD.n28 VDD.n26 914.447
R53 VDD.n11 VDD.n2 914.447
R54 VDD.t58 VDD.n127 804.731
R55 VDD.n129 VDD.t58 751.692
R56 VDD.n101 VDD.t7 671.408
R57 VDD.n90 VDD.t42 671.408
R58 VDD VDD.t57 630.375
R59 VDD.n160 VDD.n159 602.456
R60 VDD.n182 VDD.n70 602.456
R61 VDD.n74 VDD.n73 585
R62 VDD.n76 VDD.n75 585
R63 VDD.n56 VDD.n51 480.764
R64 VDD.n36 VDD.n34 480.764
R65 VDD.n19 VDD.n17 480.764
R66 VDD.n5 VDD.n1 480.764
R67 VDD VDD.t22 458.724
R68 VDD.t57 VDD 458.724
R69 VDD.n122 VDD.t64 420.25
R70 VDD.n118 VDD.t23 388.656
R71 VDD.n153 VDD.t24 388.656
R72 VDD.n131 VDD.t59 388.656
R73 VDD.n104 VDD.t1 388.656
R74 VDD.n113 VDD.t2 388.656
R75 VDD.n78 VDD.t11 388.656
R76 VDD.n83 VDD.t12 388.656
R77 VDD.n64 VDD.n51 379.2
R78 VDD.n47 VDD.n34 379.2
R79 VDD.n30 VDD.n17 379.2
R80 VDD.n13 VDD.n1 379.2
R81 VDD VDD.t60 369.938
R82 VDD VDD.t51 369.938
R83 VDD.n107 VDD.n100 322.329
R84 VDD.n85 VDD.n81 322.329
R85 VDD.n164 VDD.n162 259.697
R86 VDD.n140 VDD.t52 255.905
R87 VDD.n145 VDD.t61 255.905
R88 VDD.n121 VDD.t65 255.905
R89 VDD.n161 VDD.t28 255.905
R90 VDD.n111 VDD.t63 254.475
R91 VDD.n136 VDD.t26 252.95
R92 VDD.n141 VDD.t67 252.95
R93 VDD.n146 VDD.t40 252.95
R94 VDD.n181 VDD.t36 252.95
R95 VDD.n160 VDD.t9 251.516
R96 VDD.n71 VDD.t69 250.724
R97 VDD.n69 VDD.t34 250.724
R98 VDD.t64 VDD.t39 248.599
R99 VDD.t60 VDD.t66 248.599
R100 VDD.t51 VDD.t25 248.599
R101 VDD.n176 VDD.t46 248.219
R102 VDD.n163 VDD.t30 248.219
R103 VDD.n122 VDD 221.964
R104 VDD.n129 VDD.t73 215.827
R105 VDD.n111 VDD.n110 213.119
R106 VDD.n151 VDD.n122 213.119
R107 VDD.n119 VDD.t74 210.964
R108 VDD.n105 VDD.t72 210.964
R109 VDD.n80 VDD.t71 210.964
R110 VDD.n171 VDD.n170 209.368
R111 VDD.t39 VDD 198.287
R112 VDD.t66 VDD 198.287
R113 VDD.t25 VDD 198.287
R114 VDD.n173 VDD.n172 183.673
R115 VDD VDD.t37 182.952
R116 VDD VDD.n171 182.952
R117 VDD.t31 VDD 182.952
R118 VDD.n75 VDD.n74 159.476
R119 VDD.n162 VDD.t56 157.014
R120 VDD.t68 VDD.t43 154.417
R121 VDD.t49 VDD.t27 147.703
R122 VDD.t20 VDD.t6 140.989
R123 VDD.t27 VDD.t29 140.989
R124 VDD.t35 VDD.t33 140.989
R125 VDD.t45 VDD.t68 140.989
R126 VDD.t41 VDD.t13 140.989
R127 VDD.n162 VDD.t48 137.079
R128 VDD.n110 VDD 125.883
R129 VDD.n172 VDD 125.883
R130 VDD.n100 VDD.t21 116.341
R131 VDD.n81 VDD.t14 116.341
R132 VDD.t6 VDD 112.457
R133 VDD.t29 VDD 112.457
R134 VDD VDD.t41 112.457
R135 VDD VDD.t54 109.1
R136 VDD.t0 VDD.t20 104.064
R137 VDD.t13 VDD.t10 104.064
R138 VDD.t15 VDD 102.385
R139 VDD.t62 VDD 99.0288
R140 VDD.n159 VDD.t50 96.1553
R141 VDD.n70 VDD.t5 96.1553
R142 VDD VDD.t4 92.315
R143 VDD.n74 VDD.t44 86.7743
R144 VDD.n110 VDD.t62 83.9228
R145 VDD.n171 VDD.t47 80.5659
R146 VDD.t37 VDD.t0 77.209
R147 VDD.t10 VDD.t31 77.209
R148 VDD.n75 VDD.t55 66.8398
R149 VDD.n63 VDD.n62 66.6358
R150 VDD.n46 VDD.n45 66.6358
R151 VDD.n29 VDD.n28 66.6358
R152 VDD.n12 VDD.n11 66.6358
R153 VDD.n159 VDD.t16 63.3219
R154 VDD.n70 VDD.t18 63.3219
R155 VDD VDD.t49 62.103
R156 VDD.n57 VDD.n56 61.6672
R157 VDD.n61 VDD.n60 61.6672
R158 VDD.n40 VDD.n36 61.6672
R159 VDD.n37 VDD.n35 61.6672
R160 VDD.n23 VDD.n19 61.6672
R161 VDD.n20 VDD.n18 61.6672
R162 VDD.n6 VDD.n5 61.6672
R163 VDD.n10 VDD.n9 61.6672
R164 VDD.n58 VDD.n57 60.9564
R165 VDD.n60 VDD.n59 60.9564
R166 VDD.n41 VDD.n40 60.9564
R167 VDD.n38 VDD.n37 60.9564
R168 VDD.n24 VDD.n23 60.9564
R169 VDD.n21 VDD.n20 60.9564
R170 VDD.n7 VDD.n6 60.9564
R171 VDD.n9 VDD.n8 60.9564
R172 VDD.n46 VDD.n35 60.6123
R173 VDD.n29 VDD.n18 60.6123
R174 VDD.n63 VDD.n52 59.4829
R175 VDD.n12 VDD.n0 58.7299
R176 VDD.t43 VDD 55.3892
R177 VDD.t17 VDD 52.0323
R178 VDD VDD.t47 45.3185
R179 VDD VDD.t8 41.9616
R180 VDD.n58 VDD.n54 38.5759
R181 VDD.n59 VDD.n55 38.5759
R182 VDD.n42 VDD.n41 38.5759
R183 VDD.n39 VDD.n38 38.5759
R184 VDD.n25 VDD.n24 38.5759
R185 VDD.n22 VDD.n21 38.5759
R186 VDD.n7 VDD.n3 38.5759
R187 VDD.n8 VDD.n4 38.5759
R188 VDD.n170 VDD.n92 34.6358
R189 VDD.n170 VDD.n93 34.6358
R190 VDD.n175 VDD.n174 34.6358
R191 VDD.n172 VDD 28.5341
R192 VDD.n100 VDD.t38 28.4453
R193 VDD.n81 VDD.t32 28.4453
R194 VDD.n177 VDD.n176 28.3534
R195 VDD.n174 VDD.n173 25.6953
R196 VDD.n140 VDD.n125 25.224
R197 VDD.n136 VDD.n125 25.224
R198 VDD.n145 VDD.n124 25.224
R199 VDD.n141 VDD.n124 25.224
R200 VDD.n147 VDD.n121 25.224
R201 VDD.n147 VDD.n146 25.224
R202 VDD.n165 VDD.n161 25.224
R203 VDD.n111 VDD.n95 23.7181
R204 VDD VDD.n101 23.252
R205 VDD.n160 VDD.n95 21.4593
R206 VDD.n141 VDD.n140 20.3299
R207 VDD.n146 VDD.n145 20.3299
R208 VDD.t4 VDD.t35 20.1418
R209 VDD.n182 VDD.n69 19.9534
R210 VDD.n181 VDD.n180 19.8181
R211 VDD.n151 VDD.n121 17.3181
R212 VDD.n164 VDD.n163 17.3181
R213 VDD.n161 VDD.n160 16.5652
R214 VDD.n165 VDD.n164 16.5652
R215 VDD.n136 VDD.n135 15.8123
R216 VDD.n152 VDD.n151 14.2735
R217 VDD.n112 VDD.n111 14.2735
R218 VDD.n174 VDD.n90 13.9299
R219 VDD.n67 VDD.n66 13.6791
R220 VDD.n182 VDD.n181 13.5534
R221 VDD.n117 VDD.n116 11.4366
R222 VDD.n65 VDD.n64 11.3235
R223 VDD.n48 VDD.n47 11.3235
R224 VDD.n31 VDD.n30 11.3235
R225 VDD.n14 VDD.n13 11.3235
R226 VDD.n173 VDD.n91 11.2937
R227 VDD.n157 VDD.n156 11.2737
R228 VDD.t8 VDD.t15 10.0712
R229 VDD.n131 VDD.n128 9.60526
R230 VDD.n118 VDD.n117 9.60526
R231 VDD.n83 VDD.n82 9.60526
R232 VDD.n120 VDD.n96 9.3005
R233 VDD.n155 VDD.n154 9.3005
R234 VDD.n152 VDD.n97 9.3005
R235 VDD.n151 VDD.n150 9.3005
R236 VDD.n146 VDD.n123 9.3005
R237 VDD.n142 VDD.n141 9.3005
R238 VDD.n137 VDD.n136 9.3005
R239 VDD.n133 VDD.n132 9.3005
R240 VDD.n138 VDD.n125 9.3005
R241 VDD.n140 VDD.n139 9.3005
R242 VDD.n143 VDD.n124 9.3005
R243 VDD.n145 VDD.n144 9.3005
R244 VDD.n148 VDD.n147 9.3005
R245 VDD.n149 VDD.n121 9.3005
R246 VDD.n178 VDD.n177 9.3005
R247 VDD.n183 VDD.n182 9.3005
R248 VDD.n167 VDD.n92 9.3005
R249 VDD.n160 VDD.n158 9.3005
R250 VDD.n111 VDD.n109 9.3005
R251 VDD.n103 VDD.n102 9.3005
R252 VDD.n106 VDD.n98 9.3005
R253 VDD.n115 VDD.n114 9.3005
R254 VDD.n112 VDD.n99 9.3005
R255 VDD.n108 VDD.n95 9.3005
R256 VDD.n161 VDD.n94 9.3005
R257 VDD.n166 VDD.n165 9.3005
R258 VDD.n170 VDD.n169 9.3005
R259 VDD.n168 VDD.n93 9.3005
R260 VDD.n181 VDD.n68 9.3005
R261 VDD.n180 VDD.n179 9.3005
R262 VDD.n175 VDD.n72 9.3005
R263 VDD.n174 VDD.n77 9.3005
R264 VDD.n89 VDD.n88 9.3005
R265 VDD.n87 VDD.n86 9.3005
R266 VDD.n84 VDD.n79 9.3005
R267 VDD.n15 VDD.n0 8.23557
R268 VDD.n76 VDD.n73 6.8005
R269 VDD.n135 VDD.n127 6.48583
R270 VDD.n62 VDD.n61 6.02403
R271 VDD.n11 VDD.n10 6.02403
R272 VDD.n130 VDD.n129 5.8885
R273 VDD.n44 VDD.n35 4.89462
R274 VDD.n28 VDD.n27 4.89462
R275 VDD.n154 VDD.n120 4.67352
R276 VDD.n135 VDD.n134 4.62124
R277 VDD.n132 VDD.n131 4.36875
R278 VDD.n154 VDD.n153 4.36875
R279 VDD.n114 VDD.n113 4.36875
R280 VDD.n84 VDD.n83 4.36875
R281 VDD.t33 VDD.t17 3.35739
R282 VDD.t54 VDD.t45 3.35739
R283 VDD.n44 VDD.n33 3.23917
R284 VDD.n27 VDD.n16 3.23136
R285 VDD.n52 VDD.n50 3.22655
R286 VDD.n132 VDD.n130 3.2005
R287 VDD.n54 VDD.n53 2.84665
R288 VDD.n55 VDD.n51 2.84665
R289 VDD.n43 VDD.n42 2.84665
R290 VDD.n39 VDD.n34 2.84665
R291 VDD.n26 VDD.n25 2.84665
R292 VDD.n22 VDD.n17 2.84665
R293 VDD.n3 VDD.n2 2.84665
R294 VDD.n4 VDD.n1 2.84665
R295 VDD.n130 VDD.n127 2.8165
R296 VDD.n107 VDD.n106 2.54018
R297 VDD.n86 VDD.n85 2.54018
R298 VDD.n120 VDD.n119 2.33701
R299 VDD.n106 VDD.n105 2.33701
R300 VDD.n86 VDD.n80 2.33701
R301 VDD.n64 VDD.n63 2.28169
R302 VDD.n47 VDD.n46 2.28169
R303 VDD.n30 VDD.n29 2.28169
R304 VDD.n13 VDD.n12 2.28169
R305 VDD.n114 VDD.n107 2.13383
R306 VDD.n85 VDD.n84 2.13383
R307 VDD.n119 VDD.n118 2.03225
R308 VDD.n105 VDD.n104 2.03225
R309 VDD.n80 VDD.n78 2.03225
R310 VDD.n10 VDD.n0 1.88285
R311 VDD.n185 VDD.n184 1.753
R312 VDD.n93 VDD.n69 1.50638
R313 VDD.n177 VDD.n76 1.4005
R314 VDD.n103 VDD.n101 1.37193
R315 VDD.n90 VDD.n89 1.37193
R316 VDD.n49 VDD.n48 1.143
R317 VDD.n32 VDD.n31 1.143
R318 VDD.n66 VDD.n65 1.13925
R319 VDD.n15 VDD.n14 1.13675
R320 VDD.n61 VDD.n52 1.12991
R321 VDD.n45 VDD.n44 1.12991
R322 VDD.n27 VDD.n18 1.12991
R323 VDD.n126 VDD 1.06099
R324 VDD.n33 VDD.n32 0.862816
R325 VDD.n16 VDD.n15 0.770881
R326 VDD.n163 VDD.n92 0.753441
R327 VDD.n176 VDD.n175 0.753441
R328 VDD.n50 VDD.n49 0.729231
R329 VDD.n73 VDD.n71 0.6005
R330 VDD.n185 VDD.n67 0.511794
R331 VDD VDD.n185 0.460219
R332 VDD.n66 VDD.n50 0.405788
R333 VDD.n180 VDD.n71 0.4005
R334 VDD.n32 VDD.n16 0.392323
R335 VDD.n49 VDD.n33 0.360318
R336 VDD.n153 VDD.n152 0.305262
R337 VDD.n104 VDD.n103 0.305262
R338 VDD.n113 VDD.n112 0.305262
R339 VDD.n89 VDD.n78 0.305262
R340 VDD.t53 VDD.n58 0.27666
R341 VDD.n59 VDD.t53 0.27666
R342 VDD.n41 VDD.t19 0.27666
R343 VDD.n38 VDD.t19 0.27666
R344 VDD.n24 VDD.t70 0.27666
R345 VDD.n21 VDD.t70 0.27666
R346 VDD.t3 VDD.n7 0.27666
R347 VDD.n8 VDD.t3 0.27666
R348 VDD.n134 VDD.n133 0.180304
R349 VDD.n134 VDD 0.120408
R350 VDD.n117 VDD.n96 0.120292
R351 VDD.n155 VDD.n97 0.120292
R352 VDD.n149 VDD.n148 0.120292
R353 VDD.n148 VDD.n123 0.120292
R354 VDD.n144 VDD.n143 0.120292
R355 VDD.n143 VDD.n142 0.120292
R356 VDD.n139 VDD.n138 0.120292
R357 VDD.n138 VDD.n137 0.120292
R358 VDD.n133 VDD.n128 0.120292
R359 VDD.n102 VDD.n98 0.120292
R360 VDD.n115 VDD.n99 0.120292
R361 VDD.n166 VDD.n94 0.120292
R362 VDD.n167 VDD.n166 0.120292
R363 VDD.n183 VDD.n68 0.120292
R364 VDD.n179 VDD.n178 0.120292
R365 VDD.n178 VDD.n72 0.120292
R366 VDD.n88 VDD.n87 0.120292
R367 VDD.n87 VDD.n79 0.120292
R368 VDD.n82 VDD.n79 0.120292
R369 VDD.n156 VDD.n96 0.11899
R370 VDD.n102 VDD 0.0981562
R371 VDD.n157 VDD 0.0955521
R372 VDD.n116 VDD.n98 0.0916458
R373 VDD.n65 VDD 0.06425
R374 VDD.n48 VDD 0.06425
R375 VDD.n31 VDD 0.06425
R376 VDD.n14 VDD 0.06425
R377 VDD.n150 VDD 0.0603958
R378 VDD VDD.n149 0.0603958
R379 VDD.n144 VDD 0.0603958
R380 VDD.n139 VDD 0.0603958
R381 VDD.n109 VDD 0.0603958
R382 VDD VDD.n108 0.0603958
R383 VDD VDD.n94 0.0603958
R384 VDD.n169 VDD 0.0603958
R385 VDD VDD.n168 0.0603958
R386 VDD.n179 VDD 0.0603958
R387 VDD.n88 VDD 0.0603958
R388 VDD.n91 VDD 0.0590938
R389 VDD.n184 VDD 0.0525833
R390 VDD.n184 VDD.n183 0.0460729
R391 VDD.n109 VDD 0.0382604
R392 VDD VDD.n126 0.0369583
R393 VDD.n150 VDD 0.03175
R394 VDD.n169 VDD 0.03175
R395 VDD.n116 VDD.n115 0.0291458
R396 VDD.n67 VDD 0.0236148
R397 VDD VDD.n97 0.0226354
R398 VDD VDD.n123 0.0226354
R399 VDD.n142 VDD 0.0226354
R400 VDD.n137 VDD 0.0226354
R401 VDD.n128 VDD 0.0226354
R402 VDD VDD.n99 0.0226354
R403 VDD.n108 VDD 0.0226354
R404 VDD.n158 VDD 0.0226354
R405 VDD VDD.n167 0.0226354
R406 VDD.n168 VDD 0.0226354
R407 VDD VDD.n68 0.0226354
R408 VDD VDD.n72 0.0226354
R409 VDD VDD.n77 0.0226354
R410 VDD.n82 VDD 0.0226354
R411 VDD.n158 VDD.n157 0.00310417
R412 VDD.n156 VDD.n155 0.00180208
R413 VDD.n126 VDD 0.00180208
R414 VDD.n91 VDD.n77 0.00180208
R415 x2.GP1.n4 x2.GP1.t4 450.938
R416 x2.GP1.n4 x2.GP1.t5 445.666
R417 x2.GP1.n5 x2.GP1.n3 195.832
R418 x2.GP1.n1 x2.GP1.n0 101.49
R419 x2.GP1.n3 x2.GP1.t3 26.5955
R420 x2.GP1.n3 x2.GP1.t2 26.5955
R421 x2.GP1.n0 x2.GP1.t1 24.9236
R422 x2.GP1.n0 x2.GP1.t0 24.9236
R423 x2.GP1.n5 x1.gpo0 11.8923
R424 x1.gpo0 x2.x1.GP 11.5413
R425 x2.GP1.n2 x1.x11.Y 10.7525
R426 x1.x11.Y x2.GP1.n5 8.09215
R427 x2.GP1.n2 x1.x11.Y 6.6565
R428 x1.x11.Y x2.GP1.n2 5.04292
R429 x2.x1.GP x2.GP1.n4 2.90754
R430 x1.x11.Y x2.GP1.n1 2.5605
R431 x2.GP1.n1 x1.x11.Y 1.93989
R432 Z1.n1 Z1.t1 23.6581
R433 Z1.n3 Z1.t2 23.3739
R434 Z1.n1 Z1.t3 10.7528
R435 Z1.n0 Z1.t0 10.6417
R436 Z1.n2 Z1.n1 1.30064
R437 Z1 Z1.n4 0.983856
R438 Z1.n3 Z1.n2 0.726502
R439 Z1.n2 Z1.n0 0.512491
R440 Z1.n4 Z1.n0 0.359663
R441 Z1.n4 Z1.n3 0.216071
R442 A1.n1 A1.t2 26.3998
R443 A1.n1 A1.t1 23.5483
R444 A1.n0 A1.t0 12.7127
R445 A1.n0 A1.t3 10.8578
R446 A1.n2 A1.n1 3.12177
R447 A1.n2 A1.n0 1.81453
R448 A1.n3 A1.n2 1.1255
R449 A1.n3 A1 0.21174
R450 A1 A1.n3 0.0655
R451 select0.n5 select0.t4 327.99
R452 select0.n9 select0.t3 293.969
R453 select0.n3 select0.t7 261.887
R454 select0.n1 select0.t9 212.081
R455 select0.n0 select0.t2 212.081
R456 select0.n5 select0.t0 199.457
R457 select0.n2 select0.n1 183.185
R458 select0.n3 select0.t8 155.847
R459 select0 select0.n9 154.065
R460 select0.n6 select0.n5 152
R461 select0.n4 select0.n3 152
R462 select0.n1 select0.t1 139.78
R463 select0.n0 select0.t6 139.78
R464 select0.n9 select0.t5 138.338
R465 select0.n1 select0.n0 61.346
R466 select0.n10 select0 13.4199
R467 select0.n8 select0.n4 11.9062
R468 select0.n11 select0.n8 11.7395
R469 select0.n12 select0.n11 11.5949
R470 select0.n12 select0.n2 9.68118
R471 select0.n7 select0 9.17383
R472 select0.n2 select0 5.8885
R473 select0.n10 select0 5.57469
R474 select0.n8 select0.n7 4.6505
R475 select0.n11 select0.n10 4.6505
R476 select0.n7 select0.n6 2.98717
R477 select0.n6 select0 2.34717
R478 select0.n4 select0 2.07109
R479 select0 select0.n12 0.559212
R480 VSS.n182 VSS.n181 545142
R481 VSS.n42 VSS.n41 20148.7
R482 VSS.n55 VSS.n10 19433.3
R483 VSS.n49 VSS.n48 19054.3
R484 VSS VSS.n180 11981.2
R485 VSS.n50 VSS.n11 11744.7
R486 VSS.n54 VSS.n11 11744.7
R487 VSS.n50 VSS.n12 11744.7
R488 VSS.n54 VSS.n12 11744.7
R489 VSS.n36 VSS.n22 11744.7
R490 VSS.n40 VSS.n22 11744.7
R491 VSS.n36 VSS.n23 11744.7
R492 VSS.n40 VSS.n23 11744.7
R493 VSS.n43 VSS.n16 11744.7
R494 VSS.n47 VSS.n16 11744.7
R495 VSS.n43 VSS.n17 11744.7
R496 VSS.n47 VSS.n17 11744.7
R497 VSS.n184 VSS.n4 11744.7
R498 VSS.n184 VSS.n5 11744.7
R499 VSS.n9 VSS.n5 11744.7
R500 VSS.n9 VSS.n4 11744.7
R501 VSS.n56 VSS.n7 5416.06
R502 VSS.n21 VSS.n7 5357.62
R503 VSS.n180 VSS.n56 3878.48
R504 VSS.n183 VSS.n182 2174.55
R505 VSS VSS.t55 1289.66
R506 VSS.n179 VSS.n178 1198.25
R507 VSS.n137 VSS.n135 1198.25
R508 VSS.n146 VSS.n6 1194.5
R509 VSS.n165 VSS.n164 1171.32
R510 VSS VSS.n6 918.774
R511 VSS.t26 VSS 918.774
R512 VSS.t40 VSS.t57 826.054
R513 VSS.t51 VSS.t60 826.054
R514 VSS.t62 VSS.t16 792.337
R515 VSS.n45 VSS.n44 767.294
R516 VSS.n8 VSS.n3 767.294
R517 VSS.n52 VSS.n51 763.106
R518 VSS.n38 VSS.n37 763.106
R519 VSS.n51 VSS.n15 732.236
R520 VSS.n37 VSS.n34 732.236
R521 VSS.n44 VSS.n20 732.236
R522 VSS.n8 VSS.n1 732.236
R523 VSS.n181 VSS.n6 708.047
R524 VSS.t34 VSS.t19 708.047
R525 VSS.t16 VSS.t66 708.047
R526 VSS.t49 VSS.t53 708.047
R527 VSS.t46 VSS.t14 708.047
R528 VSS.n164 VSS.t9 681.482
R529 VSS.t19 VSS 564.751
R530 VSS.t53 VSS 564.751
R531 VSS VSS.t46 564.751
R532 VSS.n182 VSS 564.751
R533 VSS.t38 VSS.t47 554.492
R534 VSS.t14 VSS.t3 522.606
R535 VSS.n181 VSS.t38 513.419
R536 VSS.t13 VSS 480.461
R537 VSS.t6 VSS 459.26
R538 VSS.t9 VSS 459.26
R539 VSS.t47 VSS.t33 431.272
R540 VSS.t3 VSS.t26 387.74
R541 VSS VSS.t64 370.37
R542 VSS VSS.t21 370.37
R543 VSS.t42 VSS 370.37
R544 VSS.t33 VSS 343.991
R545 VSS.n135 VSS.t59 337.166
R546 VSS.n179 VSS.n57 334.815
R547 VSS.n46 VSS.n45 325.502
R548 VSS.n185 VSS.n3 325.502
R549 VSS.n135 VSS.t40 320.307
R550 VSS.n53 VSS.n52 304.204
R551 VSS.n39 VSS.n38 304.204
R552 VSS.t59 VSS 295.019
R553 VSS.n180 VSS.t6 278.519
R554 VSS VSS.t62 261.303
R555 VSS.t64 VSS.t44 248.889
R556 VSS.t21 VSS.t23 248.889
R557 VSS.t29 VSS.t31 248.889
R558 VSS.t36 VSS.t42 248.889
R559 VSS.t0 VSS 244.445
R560 VSS.n53 VSS.n13 242.448
R561 VSS.n39 VSS.n24 242.448
R562 VSS.n46 VSS.n18 242.448
R563 VSS.n186 VSS.n185 242.448
R564 VSS.n10 VSS.t18 241.579
R565 VSS.n153 VSS.t63 240.575
R566 VSS.n133 VSS.t56 237.327
R567 VSS VSS.n179 222.222
R568 VSS.n164 VSS 222.222
R569 VSS.n112 VSS.t68 218.308
R570 VSS.n88 VSS.t69 218.308
R571 VSS.n70 VSS.t70 218.308
R572 VSS.n140 VSS.t71 218.308
R573 VSS.n109 VSS.t10 214.456
R574 VSS.n111 VSS.t11 214.456
R575 VSS.n122 VSS.t7 214.456
R576 VSS.n89 VSS.t8 214.456
R577 VSS.n65 VSS.t4 214.456
R578 VSS.n69 VSS.t5 214.456
R579 VSS.n145 VSS.t1 214.456
R580 VSS.n139 VSS.t2 214.456
R581 VSS.n127 VSS.n126 204.457
R582 VSS.n78 VSS.n77 200.231
R583 VSS.n83 VSS.n82 200.231
R584 VSS.n72 VSS.n67 200.105
R585 VSS.t44 VSS 198.519
R586 VSS.t23 VSS 198.519
R587 VSS VSS.t29 198.519
R588 VSS VSS.t36 198.519
R589 VSS.n45 VSS.n17 195
R590 VSS.t25 VSS.n17 195
R591 VSS.n19 VSS.n16 195
R592 VSS.t25 VSS.n16 195
R593 VSS.n38 VSS.n23 195
R594 VSS.t12 VSS.n23 195
R595 VSS.n33 VSS.n22 195
R596 VSS.t12 VSS.n22 195
R597 VSS.n52 VSS.n12 195
R598 VSS.n12 VSS.t28 195
R599 VSS.n14 VSS.n11 195
R600 VSS.n11 VSS.t28 195
R601 VSS.n4 VSS.n2 195
R602 VSS.n57 VSS.n4 195
R603 VSS.n5 VSS.n3 195
R604 VSS.t18 VSS.n5 195
R605 VSS VSS.t51 177.012
R606 VSS.n36 VSS.n35 174.921
R607 VSS.n42 VSS.t25 163.988
R608 VSS.n49 VSS.t28 163.85
R609 VSS.n100 VSS.t65 162.471
R610 VSS.n95 VSS.t22 162.471
R611 VSS.n177 VSS.t32 162.471
R612 VSS.n172 VSS.t43 162.471
R613 VSS.n154 VSS.t17 162.471
R614 VSS.n78 VSS.t50 160.046
R615 VSS.n83 VSS.t35 160.046
R616 VSS.n91 VSS.t45 160.017
R617 VSS.n58 VSS.t24 160.017
R618 VSS.n61 VSS.t30 160.017
R619 VSS.n170 VSS.t37 160.017
R620 VSS.n161 VSS.t54 160.017
R621 VSS.n156 VSS.t67 160.017
R622 VSS.n153 VSS.t20 158.534
R623 VSS.n184 VSS.n183 152.552
R624 VSS VSS.t18 121.481
R625 VSS.n41 VSS.n21 105.025
R626 VSS.n48 VSS.n7 98.5767
R627 VSS.n56 VSS.n55 98.4942
R628 VSS.t31 VSS.n57 85.9264
R629 VSS.t66 VSS.t13 84.2917
R630 VSS.n67 VSS.t15 72.8576
R631 VSS.n126 VSS.t48 72.8576
R632 VSS.t25 VSS.n7 65.4109
R633 VSS.n56 VSS.t28 65.3562
R634 VSS.n35 VSS.n21 58.925
R635 VSS.n77 VSS.t52 58.5719
R636 VSS.n82 VSS.t41 58.5719
R637 VSS.t57 VSS.t34 50.5752
R638 VSS.t60 VSS.t49 50.5752
R639 VSS.n125 VSS 43.9579
R640 VSS.n128 VSS.n125 34.6358
R641 VSS.n132 VSS.n85 34.6358
R642 VSS.n15 VSS.n14 30.8711
R643 VSS.n34 VSS.n33 30.8711
R644 VSS.n20 VSS.n19 30.8711
R645 VSS.n2 VSS.n1 30.8711
R646 VSS.n165 VSS.n63 26.9246
R647 VSS.n146 VSS.n132 25.6926
R648 VSS.n77 VSS.t61 25.4291
R649 VSS.n82 VSS.t58 25.4291
R650 VSS.n100 VSS.n99 25.224
R651 VSS.n99 VSS.n91 25.224
R652 VSS.n95 VSS.n94 25.224
R653 VSS.n94 VSS.n58 25.224
R654 VSS.n177 VSS.n176 25.224
R655 VSS.n176 VSS.n61 25.224
R656 VSS.n172 VSS.n171 25.224
R657 VSS.n171 VSS.n170 25.224
R658 VSS.n161 VSS.n160 25.224
R659 VSS.n155 VSS.n154 25.224
R660 VSS.n156 VSS.n155 25.224
R661 VSS.n183 VSS.t18 24.1956
R662 VSS.n153 VSS.n152 24.0946
R663 VSS.n67 VSS.t27 22.3257
R664 VSS.n126 VSS.t39 22.3257
R665 VSS.n160 VSS.n78 21.4593
R666 VSS.n152 VSS.n83 21.4593
R667 VSS.n95 VSS.n91 20.3299
R668 VSS.n172 VSS.n61 20.3299
R669 VSS.n101 VSS.n100 19.2926
R670 VSS.n161 VSS.n76 17.7867
R671 VSS.n178 VSS.n177 17.3181
R672 VSS.t55 VSS.t0 16.8587
R673 VSS.n178 VSS.n58 15.8123
R674 VSS.n170 VSS.n63 15.8123
R675 VSS.n108 VSS.n63 14.775
R676 VSS.n138 VSS.n137 14.775
R677 VSS.n154 VSS.n153 13.5534
R678 VSS.n124 VSS.n123 11.2844
R679 VSS.n47 VSS.n46 11.0382
R680 VSS.n48 VSS.n47 11.0382
R681 VSS.n44 VSS.n43 11.0382
R682 VSS.n43 VSS.n42 11.0382
R683 VSS.n40 VSS.n39 11.0382
R684 VSS.n41 VSS.n40 11.0382
R685 VSS.n37 VSS.n36 11.0382
R686 VSS.n54 VSS.n53 11.0382
R687 VSS.n55 VSS.n54 11.0382
R688 VSS.n51 VSS.n50 11.0382
R689 VSS.n50 VSS.n49 11.0382
R690 VSS.n9 VSS.n8 11.0382
R691 VSS.n10 VSS.n9 11.0382
R692 VSS.n185 VSS.n184 11.0382
R693 VSS.n14 VSS.n13 10.9181
R694 VSS.n33 VSS.n24 10.9181
R695 VSS.n19 VSS.n18 10.9181
R696 VSS.n186 VSS.n2 10.9181
R697 VSS.n27 VSS.n15 10.4476
R698 VSS.n34 VSS.n32 10.4476
R699 VSS.n25 VSS.n20 10.4476
R700 VSS.n187 VSS.n1 10.4476
R701 VSS.n156 VSS.n78 10.1652
R702 VSS.n111 VSS.n106 9.70901
R703 VSS.n123 VSS.n122 9.70901
R704 VSS.n69 VSS.n68 9.70901
R705 VSS.n127 VSS.n85 9.41227
R706 VSS.n166 VSS.n165 9.3005
R707 VSS.n170 VSS.n169 9.3005
R708 VSS.n174 VSS.n61 9.3005
R709 VSS.n178 VSS.n59 9.3005
R710 VSS.n92 VSS.n58 9.3005
R711 VSS.n97 VSS.n91 9.3005
R712 VSS.n102 VSS.n101 9.3005
R713 VSS.n120 VSS.n119 9.3005
R714 VSS.n121 VSS.n87 9.3005
R715 VSS.n100 VSS.n90 9.3005
R716 VSS.n99 VSS.n98 9.3005
R717 VSS.n96 VSS.n95 9.3005
R718 VSS.n94 VSS.n93 9.3005
R719 VSS.n177 VSS.n60 9.3005
R720 VSS.n176 VSS.n175 9.3005
R721 VSS.n173 VSS.n172 9.3005
R722 VSS.n171 VSS.n62 9.3005
R723 VSS.n114 VSS.n113 9.3005