* NGSPICE file created from mux8onehot_parax.ext - technology: sky130A

.subckt mux8onehot_parax select1 select2 A1 A3 A2 A4 Z A8 select0 A7 A6 VDD A5 VSS
X0 a_5645_5909# a_5645_6085# a_5671_6037# VSS.t59 sky130_fd_pr__nfet_01v8 ad=0.1092 pd=1.36 as=0.0504 ps=0.66 w=0.42 l=0.15
X1 VSS.t6 select1.t0 a_5645_6085# VSS.t5 sky130_fd_pr__nfet_01v8 ad=0.1092 pd=1.36 as=0.1092 ps=1.36 w=0.42 l=0.15
X2 x5.A select2.t0 Z.t5 VDD.t31 sky130_fd_pr__pfet_01v8_lvt ad=2.9 pd=20.58 as=2.9 ps=20.58 w=10 l=0.35
X3 x3.Z3 x1.gno0.t2 A5.t3 VSS.t15 sky130_fd_pr__nfet_01v8_lvt ad=2.32 pd=16.58 as=2.32 ps=16.58 w=8 l=0.35
X4 VSS.t50 a_5645_6461# x1.gno2 VSS.t49 sky130_fd_pr__nfet_01v8 ad=0.1013 pd=0.99 as=0.169 ps=1.82 w=0.65 l=0.15
X5 x1.gpo3.t3 x1.gno3.t2 VSS.t13 VSS.t12 sky130_fd_pr__nfet_01v8 ad=0.08775 pd=0.92 as=0.169 ps=1.82 w=0.65 l=0.15
X6 x1.nSEL2 select2.t1 VDD.t30 VDD.t29 sky130_fd_pr__pfet_01v8_hvt ad=0.135 pd=1.27 as=0.26 ps=2.52 w=1 l=0.15
X7 VSS.t38 a_5645_5909# x1.gno1 VSS.t37 sky130_fd_pr__nfet_01v8 ad=0.1013 pd=0.99 as=0.169 ps=1.82 w=0.65 l=0.15
X8 VDD.t59 select0.t0 x1.nSEL0 VDD.t58 sky130_fd_pr__pfet_01v8_hvt ad=0.26 pd=2.52 as=0.135 ps=1.27 w=1 l=0.15
X9 x5.A select2.t2 Z.t4 VDD.t28 sky130_fd_pr__pfet_01v8_lvt ad=2.9 pd=20.58 as=2.9 ps=20.58 w=10 l=0.35
X10 A1.t1 x1.gpo0.t4 x5.A VDD.t60 sky130_fd_pr__pfet_01v8_lvt ad=2.9 pd=20.58 as=2.9 ps=20.58 w=10 l=0.35
X11 x5.A x1.gno1 A2.t2 VSS.t39 sky130_fd_pr__nfet_01v8_lvt ad=2.32 pd=16.58 as=2.32 ps=16.58 w=8 l=0.35
X12 VDD.t74 VSS.t76 VDD.t73 VDD.t72 sky130_fd_pr__pfet_01v8_hvt ad=0.2262 pd=2.26 as=0 ps=0 w=0.87 l=1.05
X13 x3.Z3 x1.nSEL2 Z.t3 VDD.t1 sky130_fd_pr__pfet_01v8_lvt ad=2.9 pd=20.58 as=2.9 ps=20.58 w=10 l=0.35
X14 x1.nSEL0 select0.t1 VDD.t53 VDD.t52 sky130_fd_pr__pfet_01v8_hvt ad=0.135 pd=1.27 as=0.26 ps=2.52 w=1 l=0.15
X15 x5.A x1.gno3.t3 A4.t1 VSS.t22 sky130_fd_pr__nfet_01v8_lvt ad=2.32 pd=16.58 as=2.32 ps=16.58 w=8 l=0.35
X16 VSS.t67 VDD.t79 VSS.t66 VSS.t65 sky130_fd_pr__nfet_01v8 ad=0.143 pd=1.62 as=0 ps=0 w=0.55 l=1.05
X17 a_5671_6037# select0.t2 VSS.t36 VSS.t35 sky130_fd_pr__nfet_01v8 ad=0.0504 pd=0.66 as=0.1013 ps=0.99 w=0.42 l=0.15
X18 A7.t3 x1.gpo2 x3.Z3 VDD.t77 sky130_fd_pr__pfet_01v8_lvt ad=2.9 pd=20.58 as=2.9 ps=20.58 w=10 l=0.35
X19 x3.Z3 x1.nSEL2 Z.t2 VDD.t0 sky130_fd_pr__pfet_01v8_lvt ad=2.9 pd=20.58 as=2.9 ps=20.58 w=10 l=0.35
X20 Z.t1 x1.nSEL2 x5.A VSS.t1 sky130_fd_pr__nfet_01v8_lvt ad=2.32 pd=16.58 as=2.32 ps=16.58 w=8 l=0.35
X21 A3.t3 x1.gpo2 x5.A VDD.t78 sky130_fd_pr__pfet_01v8_lvt ad=2.9 pd=20.58 as=2.9 ps=20.58 w=10 l=0.35
X22 VSS.t75 select1.t1 x1.nSEL1 VSS.t74 sky130_fd_pr__nfet_01v8 ad=0.169 pd=1.82 as=0.08775 ps=0.92 w=0.65 l=0.15
X23 x1.gpo3.t1 x1.gno3.t4 VDD.t33 VDD.t32 sky130_fd_pr__pfet_01v8_hvt ad=0.135 pd=1.27 as=0.26 ps=2.52 w=1 l=0.15
X24 Z.t7 select2.t3 x3.Z3 VSS.t70 sky130_fd_pr__nfet_01v8_lvt ad=2.32 pd=16.58 as=2.32 ps=16.58 w=8 l=0.35
X25 VSS.t3 a_5645_7149# x1.gno3.t1 VSS.t2 sky130_fd_pr__nfet_01v8 ad=0.1118 pd=1.04 as=0.182 ps=1.86 w=0.65 l=0.15
X26 VDD.t57 a_5645_6637# a_5645_6461# VDD.t56 sky130_fd_pr__pfet_01v8_hvt ad=0.0714 pd=0.76 as=0.0609 ps=0.71 w=0.42 l=0.15
X27 x3.Z3 x1.gno1 A6.t3 VSS.t44 sky130_fd_pr__nfet_01v8_lvt ad=2.32 pd=16.58 as=2.32 ps=16.58 w=8 l=0.35
X28 a_5645_7149# select1.t2 a_5699_7287# VSS.t56 sky130_fd_pr__nfet_01v8 ad=0.1176 pd=1.4 as=0.0567 ps=0.69 w=0.42 l=0.15
X29 x3.Z3 x1.gno0.t3 A5.t2 VSS.t15 sky130_fd_pr__nfet_01v8_lvt ad=2.32 pd=16.58 as=2.32 ps=16.58 w=8 l=0.35
X30 a_5645_6637# select0.t3 VDD.t21 VDD.t20 sky130_fd_pr__pfet_01v8_hvt ad=0.1092 pd=1.36 as=0.0714 ps=0.76 w=0.42 l=0.15
X31 VSS.t24 x1.gno0.t4 x1.gpo0.t3 VSS.t23 sky130_fd_pr__nfet_01v8 ad=0.169 pd=1.82 as=0.08775 ps=0.92 w=0.65 l=0.15
X32 a_5699_7287# select0.t4 VSS.t62 VSS.t61 sky130_fd_pr__nfet_01v8 ad=0.0567 pd=0.69 as=0.1118 ps=1.04 w=0.42 l=0.15
X33 VSS.t9 VDD.t80 VSS.t8 VSS.t7 sky130_fd_pr__nfet_01v8 ad=0.143 pd=1.62 as=0 ps=0 w=0.55 l=1.05
X34 x5.A x1.gno2 A3.t1 VSS.t30 sky130_fd_pr__nfet_01v8_lvt ad=2.32 pd=16.58 as=2.32 ps=16.58 w=8 l=0.35
X35 A8.t3 x1.gpo3.t4 x3.Z3 VDD.t7 sky130_fd_pr__pfet_01v8_lvt ad=2.9 pd=20.58 as=2.9 ps=20.58 w=10 l=0.35
X36 A1.t0 x1.gpo0.t5 x5.A VDD.t60 sky130_fd_pr__pfet_01v8_lvt ad=2.9 pd=20.58 as=2.9 ps=20.58 w=10 l=0.35
X37 a_5645_6461# a_5645_6637# a_5671_6589# VSS.t60 sky130_fd_pr__nfet_01v8 ad=0.1092 pd=1.36 as=0.0504 ps=0.66 w=0.42 l=0.15
X38 x5.A x1.gno3.t5 A4.t0 VSS.t22 sky130_fd_pr__nfet_01v8_lvt ad=2.32 pd=16.58 as=2.32 ps=16.58 w=8 l=0.35
X39 VSS.t32 x1.gno2 x1.gpo2 VSS.t31 sky130_fd_pr__nfet_01v8 ad=0.169 pd=1.82 as=0.08775 ps=0.92 w=0.65 l=0.15
X40 x1.gpo0.t2 x1.gno0.t5 VSS.t34 VSS.t33 sky130_fd_pr__nfet_01v8 ad=0.08775 pd=0.92 as=0.169 ps=1.82 w=0.65 l=0.15
X41 VSS.t64 select0.t5 a_5645_6637# VSS.t63 sky130_fd_pr__nfet_01v8 ad=0.1092 pd=1.36 as=0.1092 ps=1.36 w=0.42 l=0.15
X42 Z.t0 x1.nSEL2 x5.A VSS.t0 sky130_fd_pr__nfet_01v8_lvt ad=2.32 pd=16.58 as=2.32 ps=16.58 w=8 l=0.35
X43 VDD.t19 select1.t3 x1.nSEL1 VDD.t18 sky130_fd_pr__pfet_01v8_hvt ad=0.26 pd=2.52 as=0.135 ps=1.27 w=1 l=0.15
X44 VDD.t17 select1.t4 a_5645_7149# VDD.t16 sky130_fd_pr__pfet_01v8_hvt ad=0.1176 pd=1.4 as=0.0567 ps=0.69 w=0.42 l=0.15
X45 A5.t1 x1.gpo0.t6 x3.Z3 VDD.t4 sky130_fd_pr__pfet_01v8_lvt ad=2.9 pd=20.58 as=2.9 ps=20.58 w=10 l=0.35
X46 VDD.t71 VSS.t77 VDD.t70 VDD.t69 sky130_fd_pr__pfet_01v8_hvt ad=0.2262 pd=2.26 as=0 ps=0 w=0.87 l=1.05
X47 Z.t6 select2.t4 x3.Z3 VSS.t57 sky130_fd_pr__nfet_01v8_lvt ad=2.32 pd=16.58 as=2.32 ps=16.58 w=8 l=0.35
X48 VDD.t41 a_5645_5493# x1.gno0.t0 VDD.t40 sky130_fd_pr__pfet_01v8_hvt ad=0.16655 pd=1.39 as=0.475 ps=2.95 w=1 l=0.15
X49 a_5645_7149# select0.t6 VDD.t62 VDD.t61 sky130_fd_pr__pfet_01v8_hvt ad=0.0567 pd=0.69 as=0.16655 ps=1.39 w=0.42 l=0.15
X50 VDD.t76 x1.gno0.t6 x1.gpo0.t1 VDD.t75 sky130_fd_pr__pfet_01v8_hvt ad=0.26 pd=2.52 as=0.135 ps=1.27 w=1 l=0.15
X51 x3.Z3 x1.gno2 A7.t1 VSS.t27 sky130_fd_pr__nfet_01v8_lvt ad=2.32 pd=16.58 as=2.32 ps=16.58 w=8 l=0.35
X52 x3.Z3 x1.gno1 A6.t2 VSS.t44 sky130_fd_pr__nfet_01v8_lvt ad=2.32 pd=16.58 as=2.32 ps=16.58 w=8 l=0.35
X53 A4.t3 x1.gpo3.t5 x5.A VDD.t22 sky130_fd_pr__pfet_01v8_lvt ad=2.9 pd=20.58 as=2.9 ps=20.58 w=10 l=0.35
X54 VSS.t19 select2.t5 x1.nSEL2 VSS.t18 sky130_fd_pr__nfet_01v8 ad=0.169 pd=1.82 as=0.08775 ps=0.92 w=0.65 l=0.15
X55 a_5645_5493# x1.nSEL0 a_5699_5631# VSS.t58 sky130_fd_pr__nfet_01v8 ad=0.1176 pd=1.4 as=0.0567 ps=0.69 w=0.42 l=0.15
X56 x1.nSEL1 select1.t5 VSS.t17 VSS.t16 sky130_fd_pr__nfet_01v8 ad=0.08775 pd=0.92 as=0.169 ps=1.82 w=0.65 l=0.15
X57 x5.A x1.gno0.t7 A1.t3 VSS.t4 sky130_fd_pr__nfet_01v8_lvt ad=2.32 pd=16.58 as=2.32 ps=16.58 w=8 l=0.35
X58 VDD.t25 x1.gno2 x1.gpo2 VDD.t10 sky130_fd_pr__pfet_01v8_hvt ad=0.26 pd=2.52 as=0.135 ps=1.27 w=1 l=0.15
X59 x1.gpo0.t0 x1.gno0.t8 VDD.t9 VDD.t8 sky130_fd_pr__pfet_01v8_hvt ad=0.135 pd=1.27 as=0.26 ps=2.52 w=1 l=0.15
X60 a_5645_5909# select0.t7 VDD.t43 VDD.t42 sky130_fd_pr__pfet_01v8_hvt ad=0.0609 pd=0.71 as=0.2279 ps=1.74 w=0.42 l=0.15
X61 x5.A x1.gno2 A3.t0 VSS.t30 sky130_fd_pr__nfet_01v8_lvt ad=2.32 pd=16.58 as=2.32 ps=16.58 w=8 l=0.35
X62 A2.t3 x1.gpo1.t4 x5.A VDD.t5 sky130_fd_pr__pfet_01v8_lvt ad=2.9 pd=20.58 as=2.9 ps=20.58 w=10 l=0.35
X63 x5.A x1.gno0.t9 A1.t2 VSS.t4 sky130_fd_pr__nfet_01v8_lvt ad=2.32 pd=16.58 as=2.32 ps=16.58 w=8 l=0.35
X64 A3.t2 x1.gpo2 x5.A VDD.t78 sky130_fd_pr__pfet_01v8_lvt ad=2.9 pd=20.58 as=2.9 ps=20.58 w=10 l=0.35
X65 VDD.t68 VSS.t78 VDD.t67 VDD.t66 sky130_fd_pr__pfet_01v8_hvt ad=0.2262 pd=2.26 as=0 ps=0 w=0.87 l=1.05
X66 a_5699_5631# x1.nSEL1 VSS.t52 VSS.t51 sky130_fd_pr__nfet_01v8 ad=0.0567 pd=0.69 as=0.1118 ps=1.04 w=0.42 l=0.15
X67 VSS.t73 VDD.t81 VSS.t72 VSS.t71 sky130_fd_pr__nfet_01v8 ad=0.143 pd=1.62 as=0 ps=0 w=0.55 l=1.05
X68 x3.Z3 x1.gno3.t6 A8.t1 VSS.t14 sky130_fd_pr__nfet_01v8_lvt ad=2.32 pd=16.58 as=2.32 ps=16.58 w=8 l=0.35
X69 VDD.t45 a_5645_6461# x1.gno2 VDD.t44 sky130_fd_pr__pfet_01v8_hvt ad=0.2279 pd=1.74 as=0.26 ps=2.52 w=1 l=0.15
X70 VSS.t43 x1.gno1 x1.gpo1.t3 VSS.t42 sky130_fd_pr__nfet_01v8 ad=0.169 pd=1.82 as=0.08775 ps=0.92 w=0.65 l=0.15
X71 A6.t1 x1.gpo1.t5 x3.Z3 VDD.t6 sky130_fd_pr__pfet_01v8_lvt ad=2.9 pd=20.58 as=2.9 ps=20.58 w=10 l=0.35
X72 A5.t0 x1.gpo0.t7 x3.Z3 VDD.t4 sky130_fd_pr__pfet_01v8_lvt ad=2.9 pd=20.58 as=2.9 ps=20.58 w=10 l=0.35
X73 VDD.t51 x1.nSEL0 a_5645_5493# VDD.t50 sky130_fd_pr__pfet_01v8_hvt ad=0.1176 pd=1.4 as=0.0567 ps=0.69 w=0.42 l=0.15
X74 x1.gpo1.t2 x1.gno1 VSS.t41 VSS.t40 sky130_fd_pr__nfet_01v8 ad=0.08775 pd=0.92 as=0.169 ps=1.82 w=0.65 l=0.15
X75 VSS.t69 x1.gno3.t7 x1.gpo3.t2 VSS.t68 sky130_fd_pr__nfet_01v8 ad=0.169 pd=1.82 as=0.08775 ps=0.92 w=0.65 l=0.15
X76 VDD.t35 a_5645_5909# x1.gno1 VDD.t34 sky130_fd_pr__pfet_01v8_hvt ad=0.2279 pd=1.74 as=0.26 ps=2.52 w=1 l=0.15
X77 x1.gpo2 x1.gno2 VSS.t29 VSS.t28 sky130_fd_pr__nfet_01v8 ad=0.08775 pd=0.92 as=0.169 ps=1.82 w=0.65 l=0.15
X78 A7.t2 x1.gpo2 x3.Z3 VDD.t77 sky130_fd_pr__pfet_01v8_lvt ad=2.9 pd=20.58 as=2.9 ps=20.58 w=10 l=0.35
X79 x1.nSEL1 select1.t6 VDD.t15 VDD.t14 sky130_fd_pr__pfet_01v8_hvt ad=0.135 pd=1.27 as=0.26 ps=2.52 w=1 l=0.15
X80 VDD.t27 select2.t6 x1.nSEL2 VDD.t26 sky130_fd_pr__pfet_01v8_hvt ad=0.26 pd=2.52 as=0.135 ps=1.27 w=1 l=0.15
X81 a_5671_6589# select1.t7 VSS.t21 VSS.t20 sky130_fd_pr__nfet_01v8 ad=0.0504 pd=0.66 as=0.1013 ps=0.99 w=0.42 l=0.15
X82 x3.Z3 x1.gno2 A7.t0 VSS.t27 sky130_fd_pr__nfet_01v8_lvt ad=2.32 pd=16.58 as=2.32 ps=16.58 w=8 l=0.35
X83 A8.t2 x1.gpo3.t6 x3.Z3 VDD.t7 sky130_fd_pr__pfet_01v8_lvt ad=2.9 pd=20.58 as=2.9 ps=20.58 w=10 l=0.35
X84 A4.t2 x1.gpo3.t7 x5.A VDD.t22 sky130_fd_pr__pfet_01v8_lvt ad=2.9 pd=20.58 as=2.9 ps=20.58 w=10 l=0.35
X85 a_5645_5493# x1.nSEL1 VDD.t47 VDD.t46 sky130_fd_pr__pfet_01v8_hvt ad=0.0567 pd=0.69 as=0.16655 ps=1.39 w=0.42 l=0.15
X86 VSS.t46 a_5645_5493# x1.gno0.t1 VSS.t45 sky130_fd_pr__nfet_01v8 ad=0.1118 pd=1.04 as=0.182 ps=1.86 w=0.65 l=0.15
X87 VSS.t55 VDD.t82 VSS.t54 VSS.t53 sky130_fd_pr__nfet_01v8 ad=0.143 pd=1.62 as=0 ps=0 w=0.55 l=1.05
X88 x5.A x1.gno1 A2.t1 VSS.t39 sky130_fd_pr__nfet_01v8_lvt ad=2.32 pd=16.58 as=2.32 ps=16.58 w=8 l=0.35
X89 VDD.t39 x1.gno1 x1.gpo1.t1 VDD.t38 sky130_fd_pr__pfet_01v8_hvt ad=0.26 pd=2.52 as=0.135 ps=1.27 w=1 l=0.15
X90 A2.t0 x1.gpo1.t6 x5.A VDD.t5 sky130_fd_pr__pfet_01v8_lvt ad=2.9 pd=20.58 as=2.9 ps=20.58 w=10 l=0.35
X91 VDD.t3 a_5645_7149# x1.gno3.t0 VDD.t2 sky130_fd_pr__pfet_01v8_hvt ad=0.16655 pd=1.39 as=0.475 ps=2.95 w=1 l=0.15
X92 x1.nSEL2 select2.t7 VSS.t26 VSS.t25 sky130_fd_pr__nfet_01v8 ad=0.08775 pd=0.92 as=0.169 ps=1.82 w=0.65 l=0.15
X93 VSS.t48 select0.t8 x1.nSEL0 VSS.t47 sky130_fd_pr__nfet_01v8 ad=0.169 pd=1.82 as=0.08775 ps=0.92 w=0.65 l=0.15
X94 x1.gpo1.t0 x1.gno1 VDD.t37 VDD.t36 sky130_fd_pr__pfet_01v8_hvt ad=0.135 pd=1.27 as=0.26 ps=2.52 w=1 l=0.15
X95 VDD.t49 x1.gno3.t8 x1.gpo3.t0 VDD.t48 sky130_fd_pr__pfet_01v8_hvt ad=0.26 pd=2.52 as=0.135 ps=1.27 w=1 l=0.15
X96 x3.Z3 x1.gno3.t9 A8.t0 VSS.t14 sky130_fd_pr__nfet_01v8_lvt ad=2.32 pd=16.58 as=2.32 ps=16.58 w=8 l=0.35
X97 VDD.t55 a_5645_6085# a_5645_5909# VDD.t54 sky130_fd_pr__pfet_01v8_hvt ad=0.0714 pd=0.76 as=0.0609 ps=0.71 w=0.42 l=0.15
X98 x1.gpo2 x1.gno2 VDD.t24 VDD.t23 sky130_fd_pr__pfet_01v8_hvt ad=0.135 pd=1.27 as=0.26 ps=2.52 w=1 l=0.15
X99 VDD.t65 VSS.t79 VDD.t64 VDD.t63 sky130_fd_pr__pfet_01v8_hvt ad=0.2262 pd=2.26 as=0 ps=0 w=0.87 l=1.05
X100 a_5645_6085# select1.t8 VDD.t13 VDD.t12 sky130_fd_pr__pfet_01v8_hvt ad=0.1092 pd=1.36 as=0.0714 ps=0.76 w=0.42 l=0.15
X101 x1.nSEL0 select0.t9 VSS.t11 VSS.t10 sky130_fd_pr__nfet_01v8 ad=0.08775 pd=0.92 as=0.169 ps=1.82 w=0.65 l=0.15
X102 a_5645_6461# select1.t9 VDD.t11 VDD.t10 sky130_fd_pr__pfet_01v8_hvt ad=0.0609 pd=0.71 as=0.2279 ps=1.74 w=0.42 l=0.15
X103 A6.t0 x1.gpo1.t7 x3.Z3 VDD.t6 sky130_fd_pr__pfet_01v8_lvt ad=2.9 pd=20.58 as=2.9 ps=20.58 w=10 l=0.35
R0 VSS.n237 VSS.n236 587674
R1 VSS.n171 VSS.n170 153375
R2 VSS.n193 VSS.n178 117542
R3 VSS.n249 VSS.n172 71206.2
R4 VSS.n249 VSS.n248 64736.2
R5 VSS.n238 VSS.n9 16580.8
R6 VSS.n242 VSS.n173 11744.7
R7 VSS.n247 VSS.n173 11744.7
R8 VSS.n242 VSS.n174 11744.7
R9 VSS.n247 VSS.n174 11744.7
R10 VSS.n253 VSS.n28 11744.7
R11 VSS.n253 VSS.n29 11744.7
R12 VSS.n257 VSS.n29 11744.7
R13 VSS.n257 VSS.n28 11744.7
R14 VSS.n264 VSS.n22 11744.7
R15 VSS.n260 VSS.n22 11744.7
R16 VSS.n264 VSS.n23 11744.7
R17 VSS.n260 VSS.n23 11744.7
R18 VSS.n271 VSS.n16 11744.7
R19 VSS.n267 VSS.n16 11744.7
R20 VSS.n271 VSS.n17 11744.7
R21 VSS.n267 VSS.n17 11744.7
R22 VSS.n278 VSS.n10 11744.7
R23 VSS.n274 VSS.n10 11744.7
R24 VSS.n278 VSS.n11 11744.7
R25 VSS.n274 VSS.n11 11744.7
R26 VSS.n190 VSS.n179 11744.7
R27 VSS.n185 VSS.n179 11744.7
R28 VSS.n190 VSS.n181 11744.7
R29 VSS.n185 VSS.n181 11744.7
R30 VSS.n205 VSS.n204 11744.7
R31 VSS.n201 VSS.n200 11744.7
R32 VSS.n204 VSS.n201 11744.7
R33 VSS.n234 VSS.n194 11744.7
R34 VSS.n230 VSS.n195 11744.7
R35 VSS.n234 VSS.n195 11744.7
R36 VSS.n218 VSS.n217 11744.7
R37 VSS.n214 VSS.n213 11744.7
R38 VSS.n217 VSS.n214 11744.7
R39 VSS.n281 VSS.n4 11744.7
R40 VSS.n281 VSS.n5 11744.7
R41 VSS.n7 VSS.n4 11744.7
R42 VSS.n237 VSS.n178 10428.2
R43 VSS.n238 VSS.n191 7573.12
R44 VSS.n191 VSS.t0 7065.1
R45 VSS.t1 VSS.n172 7065.1
R46 VSS.n180 VSS.t0 6710.74
R47 VSS.n180 VSS.t1 6710.74
R48 VSS.n241 VSS.n239 6647.5
R49 VSS.n273 VSS.n272 6049.9
R50 VSS.n241 VSS.t70 6006.85
R51 VSS.n248 VSS.t57 6006.85
R52 VSS.n259 VSS.n258 6004.3
R53 VSS.n280 VSS.n279 5972.7
R54 VSS.n266 VSS.n265 5963.12
R55 VSS.t70 VSS.n240 5705.56
R56 VSS.n240 VSS.t57 5705.56
R57 VSS.n239 VSS.n178 4796.58
R58 VSS.n238 VSS.n237 3666.67
R59 VSS.n192 VSS.n9 3385.09
R60 VSS.n15 VSS.n9 3361.58
R61 VSS.n27 VSS.n21 3305.56
R62 VSS.n235 VSS.n193 3279.94
R63 VSS.n21 VSS.n15 3275.35
R64 VSS.n62 VSS.n27 2366.85
R65 VSS.n250 VSS.n249 2235.82
R66 VSS.n236 VSS.n235 1652.78
R67 VSS.n236 VSS.n192 1652.78
R68 VSS.t2 VSS.n169 1550.96
R69 VSS VSS.t63 1289.66
R70 VSS.n137 VSS.n136 1198.25
R71 VSS.n159 VSS.n40 1198.25
R72 VSS.n169 VSS.n168 1194.5
R73 VSS.n140 VSS.n139 1171.32
R74 VSS.n251 VSS.n250 1006.48
R75 VSS.n169 VSS 918.774
R76 VSS.t45 VSS 918.774
R77 VSS.t61 VSS.t2 910.346
R78 VSS.t20 VSS.t49 826.054
R79 VSS.t35 VSS.t37 826.054
R80 VSS.t5 VSS.t74 792.337
R81 VSS.n256 VSS.n255 767.294
R82 VSS.n270 VSS.n269 767.294
R83 VSS.n232 VSS.n231 767.294
R84 VSS.n6 VSS.n3 767.294
R85 VSS.n263 VSS.n262 763.106
R86 VSS.n277 VSS.n276 763.106
R87 VSS.n202 VSS.n198 763.106
R88 VSS.n215 VSS.n211 763.106
R89 VSS.n243 VSS.n177 763.09
R90 VSS.n189 VSS.n182 763.09
R91 VSS.n177 VSS.n175 732.236
R92 VSS.n256 VSS.n30 732.236
R93 VSS.n270 VSS.n18 732.236
R94 VSS.n263 VSS.n24 732.236
R95 VSS.n277 VSS.n12 732.236
R96 VSS.n184 VSS.n182 732.236
R97 VSS.n207 VSS.n198 732.236
R98 VSS.n231 VSS.n228 732.236
R99 VSS.n220 VSS.n211 732.236
R100 VSS.n6 VSS.n1 732.236
R101 VSS.n250 VSS.n171 709.912
R102 VSS.t18 VSS.t25 708.047
R103 VSS.t74 VSS.t16 708.047
R104 VSS.t47 VSS.t10 708.047
R105 VSS.t58 VSS.t51 708.047
R106 VSS.n139 VSS.t65 606.351
R107 VSS.t56 VSS 564.751
R108 VSS.t25 VSS 564.751
R109 VSS.t10 VSS 564.751
R110 VSS VSS.t58 564.751
R111 VSS.n171 VSS 564.751
R112 VSS.n170 VSS.t56 522.606
R113 VSS.t51 VSS.t71 522.606
R114 VSS.t59 VSS 480.461
R115 VSS VSS.t53 408.628
R116 VSS.t71 VSS.t45 387.74
R117 VSS.n138 VSS 384.901
R118 VSS.t42 VSS.n137 374.356
R119 VSS.n40 VSS.t60 337.166
R120 VSS.n252 VSS.n251 332.642
R121 VSS.t68 VSS 329.539
R122 VSS.t31 VSS 329.539
R123 VSS.t23 VSS 329.539
R124 VSS.n255 VSS.n254 325.502
R125 VSS.n269 VSS.n268 325.502
R126 VSS.n233 VSS.n232 325.502
R127 VSS.n282 VSS.n3 325.502
R128 VSS.n40 VSS.t20 320.307
R129 VSS.n244 VSS.n243 304.553
R130 VSS.n189 VSS.n188 304.553
R131 VSS.n262 VSS.n261 304.204
R132 VSS.n276 VSS.n275 304.204
R133 VSS.n203 VSS.n202 304.204
R134 VSS.n216 VSS.n215 304.204
R135 VSS.t60 VSS 295.019
R136 VSS.n245 VSS.n244 266.349
R137 VSS.n188 VSS.n187 266.349
R138 VSS VSS.t5 261.303
R139 VSS.t7 VSS 244.445
R140 VSS.n254 VSS.n32 242.448
R141 VSS.n268 VSS.n20 242.448
R142 VSS.n261 VSS.n26 242.448
R143 VSS.n275 VSS.n14 242.448
R144 VSS.n203 VSS.n197 242.448
R145 VSS.n233 VSS.n196 242.448
R146 VSS.n216 VSS.n210 242.448
R147 VSS.n283 VSS.n282 242.448
R148 VSS.n152 VSS.t6 240.575
R149 VSS.n164 VSS.t64 237.327
R150 VSS.t12 VSS.t68 221.451
R151 VSS.t28 VSS.t31 221.451
R152 VSS.t40 VSS.t42 221.451
R153 VSS.t33 VSS.t23 221.451
R154 VSS.n106 VSS.t79 218.308
R155 VSS.n82 VSS.t78 218.308
R156 VSS.n50 VSS.t77 218.308
R157 VSS.n36 VSS.t76 218.308
R158 VSS.n103 VSS.t66 214.456
R159 VSS.n105 VSS.t67 214.456
R160 VSS.n80 VSS.t54 214.456
R161 VSS.n67 VSS.t55 214.456
R162 VSS.n45 VSS.t72 214.456
R163 VSS.n49 VSS.t73 214.456
R164 VSS.n34 VSS.t8 214.456
R165 VSS.n37 VSS.t9 214.456
R166 VSS.n74 VSS.n70 204.457
R167 VSS.n146 VSS.n44 200.231
R168 VSS.n39 VSS.n38 200.231
R169 VSS.n52 VSS.n47 200.105
R170 VSS.n137 VSS 197.724
R171 VSS.n139 VSS 197.724
R172 VSS.n276 VSS.n11 195
R173 VSS.n11 VSS.t22 195
R174 VSS.n13 VSS.n10 195
R175 VSS.n10 VSS.t22 195
R176 VSS.n269 VSS.n17 195
R177 VSS.n17 VSS.t30 195
R178 VSS.n19 VSS.n16 195
R179 VSS.n16 VSS.t30 195
R180 VSS.n262 VSS.n23 195
R181 VSS.n23 VSS.t39 195
R182 VSS.n25 VSS.n22 195
R183 VSS.n22 VSS.t39 195
R184 VSS.n31 VSS.n28 195
R185 VSS.n138 VSS.n28 195
R186 VSS.n255 VSS.n29 195
R187 VSS.n29 VSS.t4 195
R188 VSS.n186 VSS.n185 195
R189 VSS.n185 VSS.n172 195
R190 VSS.n190 VSS.n189 195
R191 VSS.n191 VSS.n190 195
R192 VSS.n247 VSS.n246 195
R193 VSS.n248 VSS.n247 195
R194 VSS.n243 VSS.n242 195
R195 VSS.n242 VSS.n241 195
R196 VSS.n202 VSS.n201 195
R197 VSS.n201 VSS.t14 195
R198 VSS.n206 VSS.n205 195
R199 VSS.n232 VSS.n195 195
R200 VSS.n195 VSS.t27 195
R201 VSS.n227 VSS.n194 195
R202 VSS.n215 VSS.n214 195
R203 VSS.n214 VSS.t44 195
R204 VSS.n219 VSS.n218 195
R205 VSS.n4 VSS.n2 195
R206 VSS.t15 VSS.n4 195
R207 VSS.n5 VSS.n3 195
R208 VSS.n8 VSS.n5 188.989
R209 VSS.n218 VSS.n212 188.988
R210 VSS.n229 VSS.n194 188.986
R211 VSS.n205 VSS.n199 188.984
R212 VSS.n170 VSS.t61 185.441
R213 VSS.n258 VSS.t4 183.936
R214 VSS VSS.t35 177.012
R215 VSS VSS.t28 176.633
R216 VSS VSS.t40 176.633
R217 VSS VSS.t33 176.633
R218 VSS.n251 VSS 176.633
R219 VSS.n200 VSS.n199 173.373
R220 VSS.n230 VSS.n229 173.304
R221 VSS.n213 VSS.n212 173.167
R222 VSS.n8 VSS.n7 173.097
R223 VSS.n115 VSS.t69 162.471
R224 VSS.n120 VSS.t32 162.471
R225 VSS.n64 VSS.t43 162.471
R226 VSS.n130 VSS.t24 162.471
R227 VSS.n41 VSS.t75 162.471
R228 VSS.n146 VSS.t48 160.046
R229 VSS.n39 VSS.t19 160.046
R230 VSS.n119 VSS.t13 160.017
R231 VSS.n63 VSS.t29 160.017
R232 VSS.n131 VSS.t41 160.017
R233 VSS.n126 VSS.t34 160.017
R234 VSS.n57 VSS.t11 160.017
R235 VSS.n147 VSS.t17 160.017
R236 VSS.n152 VSS.t26 158.534
R237 VSS.n279 VSS.t22 155.954
R238 VSS.n272 VSS.t30 155.954
R239 VSS.n265 VSS.t39 155.831
R240 VSS.n252 VSS.t4 139.648
R241 VSS.n204 VSS.n193 118.54
R242 VSS.n235 VSS.n234 111.895
R243 VSS.n217 VSS.n192 111.808
R244 VSS.n273 VSS.n15 99.881
R245 VSS.n266 VSS.n21 93.748
R246 VSS.n259 VSS.n27 93.6734
R247 VSS.n62 VSS.t12 89.635
R248 VSS.n9 VSS.t15 89.4314
R249 VSS VSS.n62 86.9987
R250 VSS.t16 VSS.t59 84.2917
R251 VSS.n239 VSS.n238 79.0175
R252 VSS.n47 VSS.t52 72.8576
R253 VSS.n70 VSS.t62 72.8576
R254 VSS.n280 VSS.n9 72.6343
R255 VSS.n235 VSS.t27 66.9242
R256 VSS.t44 VSS.n192 66.8669
R257 VSS.n21 VSS.t30 62.2068
R258 VSS.n27 VSS.t39 62.1573
R259 VSS.t14 VSS.n193 60.352
R260 VSS.n44 VSS.t36 58.5719
R261 VSS.n38 VSS.t21 58.5719
R262 VSS.n15 VSS.t22 56.0738
R263 VSS.n246 VSS.n245 54.2123
R264 VSS.n187 VSS.n186 54.2123
R265 VSS.t49 VSS.t18 50.5752
R266 VSS.t37 VSS.t47 50.5752
R267 VSS.n76 VSS 43.9579
R268 VSS.n253 VSS.n252 42.2329
R269 VSS.n76 VSS.n75 34.6358
R270 VSS.n73 VSS.n33 34.6358
R271 VSS.n246 VSS.n175 30.8711
R272 VSS.n31 VSS.n30 30.8711
R273 VSS.n19 VSS.n18 30.8711
R274 VSS.n25 VSS.n24 30.8711
R275 VSS.n13 VSS.n12 30.8711
R276 VSS.n186 VSS.n184 30.8711
R277 VSS.n207 VSS.n206 30.8711
R278 VSS.n228 VSS.n227 30.8711
R279 VSS.n220 VSS.n219 30.8711
R280 VSS.n2 VSS.n1 30.8711
R281 VSS.n140 VSS.n61 26.9246
R282 VSS.n168 VSS.n33 25.6926
R283 VSS.n44 VSS.t38 25.4291
R284 VSS.n38 VSS.t50 25.4291
R285 VSS.n115 VSS.n66 25.224
R286 VSS.n119 VSS.n66 25.224
R287 VSS.n121 VSS.n120 25.224
R288 VSS.n121 VSS.n63 25.224
R289 VSS.n132 VSS.n64 25.224
R290 VSS.n132 VSS.n131 25.224
R291 VSS.n130 VSS.n129 25.224
R292 VSS.n129 VSS.n126 25.224
R293 VSS.n57 VSS.n43 25.224
R294 VSS.n148 VSS.n41 25.224
R295 VSS.n148 VSS.n147 25.224
R296 VSS.n153 VSS.n152 24.0946
R297 VSS.t65 VSS.n138 23.7273
R298 VSS.n47 VSS.t46 22.3257
R299 VSS.n70 VSS.t3 22.3257
R300 VSS.n146 VSS.n43 21.4593
R301 VSS.n153 VSS.n39 21.4593
R302 VSS.n120 VSS.n119 20.3299
R303 VSS.n131 VSS.n130 20.3299
R304 VSS.n115 VSS.n114 19.2926
R305 VSS.n57 VSS.n56 17.7867
R306 VSS.n136 VSS.n64 17.3181
R307 VSS.t63 VSS.t7 16.8587
R308 VSS.n136 VSS.n63 15.8123
R309 VSS.n126 VSS.n61 15.8123
R310 VSS.n281 VSS.n280 15.1478
R311 VSS.n102 VSS.n61 14.775
R312 VSS.n160 VSS.n159 14.775
R313 VSS.n152 VSS.n41 13.5534
R314 VSS.n79 VSS.n78 11.2844
R315 VSS.n275 VSS.n274 11.0382
R316 VSS.n274 VSS.n273 11.0382
R317 VSS.n278 VSS.n277 11.0382
R318 VSS.n279 VSS.n278 11.0382
R319 VSS.n268 VSS.n267 11.0382
R320 VSS.n267 VSS.n266 11.0382
R321 VSS.n271 VSS.n270 11.0382
R322 VSS.n272 VSS.n271 11.0382
R323 VSS.n261 VSS.n260 11.0382
R324 VSS.n260 VSS.n259 11.0382
R325 VSS.n264 VSS.n263 11.0382
R326 VSS.n265 VSS.n264 11.0382
R327 VSS.n254 VSS.n253 11.0382
R328 VSS.n257 VSS.n256 11.0382
R329 VSS.n258 VSS.n257 11.0382
R330 VSS.n188 VSS.n181 11.0382
R331 VSS.n181 VSS.n180 11.0382
R332 VSS.n182 VSS.n179 11.0382
R333 VSS.n180 VSS.n179 11.0382
R334 VSS.n244 VSS.n174 11.0382
R335 VSS.n240 VSS.n174 11.0382
R336 VSS.n177 VSS.n173 11.0382
R337 VSS.n240 VSS.n173 11.0382
R338 VSS.n204 VSS.n203 11.0382
R339 VSS.n200 VSS.n198 11.0382
R340 VSS.n234 VSS.n233 11.0382
R341 VSS.n231 VSS.n230 11.0382
R342 VSS.n217 VSS.n216 11.0382
R343 VSS.n213 VSS.n211 11.0382
R344 VSS.n7 VSS.n6 11.0382
R345 VSS.n282 VSS.n281 11.0382
R346 VSS.n32 VSS.n31 10.9181
R347 VSS.n20 VSS.n19 10.9181
R348 VSS.n26 VSS.n25 10.9181
R349 VSS.n14 VSS.n13 10.9181
R350 VSS.n206 VSS.n197 10.9181
R351 VSS.n227 VSS.n196 10.9181
R352 VSS.n219 VSS.n210 10.9181
R353 VSS.n283 VSS.n2 10.9181
R354 VSS.n176 VSS.n175 10.4476
R355 VSS.n85 VSS.n30 10.4476
R356 VSS.n89 VSS.n18 10.4476
R357 VSS.n87 VSS.n24 10.4476
R358 VSS.n91 VSS.n12 10.4476
R359 VSS.n184 VSS.n183 10.4476
R360 VSS.n208 VSS.n207 10.4476
R361 VSS.n228 VSS.n226 10.4476
R362 VSS.n221 VSS.n220 10.4476
R363 VSS.n284 VSS.n1 10.4476
R364 VSS.n147 VSS.n146 10.1652
R365 VSS.n105 VSS.n100 9.70901
R366 VSS.n80 VSS.n79 9.70901
R367 VSS.n49 VSS.n48 9.70901
R368 VSS.n74 VSS.n73 9.41227
R369 VSS.n141 VSS.n140 9.3005
R370 VSS.n127 VSS.n126 9.3005
R371 VSS.n131 VSS.n124 9.3005
R372 VSS.n136 VSS.n135 9.3005
R373 VSS.n123 VSS.n63 9.3005
R374 VSS.n119 VSS.n118 9.3005
R375 VSS.n114 VSS.n113 9.3005
R376 VSS.n84 VSS.n83 9.3005
R377 VSS.n81 VSS.n68 9.3005
R378 VSS.n116 VSS.n115 9.3005
R379 VSS.n117 VSS.n66 9.3005
R380 VSS.n120 VSS.n65 9.3005
R381 VSS.n122 VSS.n121 9.3005
R382 VSS.n134 VSS.n64 9.3005
R383 VSS.n133 VSS.n132 9.3005
R384 VSS.n130 VSS.n125 9.3005
R385 VSS.n129 VSS.n128 9.3005
R386 VSS.n108 VSS.n107 9.3005
R387 VSS.n104 VSS.n99 9.3005
R388 VSS.n102 VSS.n101 9.3005
R389 VSS.n61 VSS.n59 9.3005
R390 VSS.n168 VSS.n167 9.3005
R391 VSS.n166 VSS.n165 9.3005
R392 VSS.n157 VSS.n39 9.3005
R393 VSS.n152 VSS.n151 9.3005
R394 VSS.n146 VSS.n145 9.3005
R395 VSS.n51 VSS.n46 9.3005
R396 VSS.n54 VSS.n53 9.3005
R397 VSS.n56 VSS.n55 9.3005
R398 VSS.n58 VSS.n57 9.3005
R399 VSS.n144 VSS.n43 9.3005
R400 VSS.n147 VSS.n42 9.3005
R401 VSS.n149 VSS.n148 9.3005
R402 VSS.n150 VSS.n41 9.3005
R403 VSS.n154 VSS.n153 9.3005
R404 VSS.n161 VSS.n160 9.3005
R405 VSS.n163 VSS.n162 9.3005
R406 VSS.n71 VSS.n33 9.3005
R407 VSS.n73 VSS.n72 9.3005
R408 VSS.n75 VSS.n69 9.3005
R409 VSS.n77 VSS.n76 9.3005
R410 VSS.n159 VSS.n158 9.3005
R411 VSS.n93 VSS.n92 8.45078
R412 VSS.n224 VSS.n209 8.45078
R413 VSS.n95 VSS.n86 8.30267
R414 VSS.n285 VSS.n0 8.30267
R415 VSS.n94 VSS.n88 7.97888
R416 VSS.n223 VSS.n222 7.97888
R417 VSS.n93 VSS.n90 7.97601
R418 VSS.n225 VSS.n224 7.97601
R419 VSS.n176 VSS 7.23036
R420 VSS.n183 VSS 7.23036
R421 VSS.n86 VSS.n85 7.16724
R422 VSS.n90 VSS.n89 7.16724
R423 VSS.n88 VSS.n87 7.16724
R424 VSS.n92 VSS.n91 7.16724
R425 VSS.n209 VSS.n208 7.16724
R426 VSS.n226 VSS.n225 7.16724
R427 VSS.n222 VSS.n221 7.16724
R428 VSS.n285 VSS.n284 7.16724
R429 VSS.n159 VSS.n39 7.15344
R430 VSS.n143 VSS.n142 6.50373
R431 VSS.n75 VSS.n74 6.4005
R432 VSS.n107 VSS.n104 6.26433
R433 VSS.n83 VSS.n81 6.26433
R434 VSS.n104 VSS.n103 5.85582
R435 VSS.n81 VSS.n80 5.85582
R436 VSS.n53 VSS.n45 5.85582
R437 VSS.n165 VSS.n34 5.85582
R438 VSS.n164 VSS.n163 5.85582
R439 VSS.n142 VSS.n59 4.788
R440 VSS.n85 VSS.n32 4.73093
R441 VSS.n89 VSS.n20 4.73093
R442 VSS.n87 VSS.n26 4.73093
R443 VSS.n91 VSS.n14 4.73093
R444 VSS.n208 VSS.n197 4.73093
R445 VSS.n226 VSS.n196 4.73093
R446 VSS.n221 VSS.n210 4.73093
R447 VSS.n284 VSS.n283 4.73093
R448 VSS.n142 VSS.n141 4.50726
R449 VSS.n97 VSS 4.01425
R450 VSS.n96 VSS 4.01425
R451 VSS.n245 VSS.n176 3.78485
R452 VSS.n187 VSS.n183 3.78485
R453 VSS.n52 VSS.n51 3.40476
R454 VSS.n107 VSS.n106 3.13241
R455 VSS.n83 VSS.n82 3.13241
R456 VSS.n51 VSS.n50 3.13241
R457 VSS.n163 VSS.n36 3.13241
R458 VSS.n155 VSS.n35 2.88636
R459 VSS.t14 VSS.n199 2.87953
R460 VSS.n229 VSS.t27 2.87839
R461 VSS.t44 VSS.n212 2.87611
R462 VSS.t15 VSS.n8 2.87497
R463 VSS.n53 VSS.n52 2.86007
R464 VSS.n106 VSS.n105 2.7239
R465 VSS.n82 VSS.n67 2.7239
R466 VSS.n50 VSS.n49 2.7239
R467 VSS.n37 VSS.n36 2.7239
R468 VSS.n112 VSS.n111 1.753
R469 VSS.n110 VSS.n109 1.753
R470 VSS VSS.n98 1.48125
R471 VSS.n156 VSS.n155 1.21169
R472 VSS.n98 VSS.n97 1.11894
R473 VSS.n111 VSS 0.95037
R474 VSS.n111 VSS.n110 0.761313
R475 VSS.n155 VSS 0.531208
R476 VSS.n94 VSS.n93 0.467019
R477 VSS.n224 VSS.n223 0.467019
R478 VSS.n103 VSS.n102 0.409011
R479 VSS.n114 VSS.n67 0.409011
R480 VSS.n56 VSS.n45 0.409011
R481 VSS.n168 VSS.n34 0.409011
R482 VSS.n165 VSS.n164 0.409011
R483 VSS.n160 VSS.n37 0.409011
R484 VSS.n97 VSS.n0 0.198729
R485 VSS.n96 VSS.n95 0.194976
R486 VSS.n141 VSS.n60 0.1255
R487 VSS.n79 VSS.n68 0.120292
R488 VSS.n84 VSS.n68 0.120292
R489 VSS.n117 VSS.n116 0.120292
R490 VSS.n118 VSS.n117 0.120292
R491 VSS.n122 VSS.n65 0.120292
R492 VSS.n123 VSS.n122 0.120292
R493 VSS.n134 VSS.n133 0.120292
R494 VSS.n133 VSS.n124 0.120292
R495 VSS.n128 VSS.n125 0.120292
R496 VSS.n128 VSS.n127 0.120292
R497 VSS.n101 VSS.n99 0.120292
R498 VSS.n108 VSS.n100 0.120292
R499 VSS.n77 VSS.n69 0.120292
R500 VSS.n72 VSS.n69 0.120292
R501 VSS.n72 VSS.n71 0.120292
R502 VSS.n162 VSS.n161 0.120292
R503 VSS.n150 VSS.n149 0.120292
R504 VSS.n149 VSS.n42 0.120292
R505 VSS.n145 VSS.n144 0.120292
R506 VSS.n55 VSS.n54 0.120292
R507 VSS.n54 VSS.n46 0.120292
R508 VSS.n48 VSS.n46 0.120292
R509 VSS.n162 VSS 0.0981562
R510 VSS.n78 VSS 0.09425
R511 VSS.n110 VSS 0.0881354
R512 VSS.n95 VSS.n94 0.0766574
R513 VSS.n223 VSS.n0 0.0766574
R514 VSS.n109 VSS.n108 0.0721146
R515 VSS.n156 VSS.n154 0.0708125
R516 VSS.n86 VSS 0.064875
R517 VSS.n90 VSS 0.064875
R518 VSS.n88 VSS 0.064875
R519 VSS.n225 VSS 0.064875
R520 VSS.n222 VSS 0.064875
R521 VSS VSS.n285 0.064875
R522 VSS.n92 VSS 0.063625
R523 VSS.n209 VSS 0.063625
R524 VSS.n112 VSS.n84 0.0616979
R525 VSS.n116 VSS 0.0603958
R526 VSS VSS.n65 0.0603958
R527 VSS.n135 VSS 0.0603958
R528 VSS VSS.n134 0.0603958
R529 VSS.n125 VSS 0.0603958
R530 VSS VSS.n59 0.0603958
R531 VSS.n101 VSS 0.0603958
R532 VSS.n71 VSS 0.0603958
R533 VSS VSS.n166 0.0603958
R534 VSS.n158 VSS 0.0603958
R535 VSS VSS.n157 0.0603958
R536 VSS.n154 VSS 0.0603958
R537 VSS.n151 VSS 0.0603958
R538 VSS VSS.n150 0.0603958
R539 VSS.n145 VSS 0.0603958
R540 VSS.n144 VSS 0.0603958
R541 VSS.n55 VSS 0.0603958
R542 VSS.n113 VSS.n112 0.0590938
R543 VSS VSS.n143 0.0590938
R544 VSS.n157 VSS.n156 0.0499792
R545 VSS.n109 VSS.n99 0.0486771
R546 VSS VSS.n35 0.0460729
R547 VSS.n98 VSS.n96 0.040297
R548 VSS.n167 VSS 0.0343542
R549 VSS.n135 VSS 0.0330521
R550 VSS.n158 VSS 0.0330521
R551 VSS VSS.n60 0.03175
R552 VSS.n113 VSS 0.0226354
R553 VSS.n118 VSS 0.0226354
R554 VSS VSS.n123 0.0226354
R555 VSS VSS.n124 0.0226354
R556 VSS.n127 VSS 0.0226354
R557 VSS.n100 VSS 0.0226354
R558 VSS.n166 VSS 0.0226354
R559 VSS.n161 VSS 0.0226354
R560 VSS.n151 VSS 0.0226354
R561 VSS VSS.n42 0.0226354
R562 VSS.n58 VSS 0.0226354
R563 VSS.n48 VSS 0.0226354
R564 VSS.n167 VSS.n35 0.0148229
R565 VSS.n78 VSS.n77 0.00440625
R566 VSS.n60 VSS.n59 0.00180208
R567 VSS.n143 VSS.n58 0.00180208
R568 select1.n10 select1.t8 327.99
R569 select1.n3 select1.t7 293.969
R570 select1.n6 select1.t4 256.07
R571 select1.n1 select1.t6 212.081
R572 select1.n0 select1.t3 212.081
R573 select1.n10 select1.t0 199.457
R574 select1.n2 select1.n1 182.929
R575 select1 select1.n3 154.065
R576 select1.n11 select1.n10 152
R577 select1.n7 select1.n6 152
R578 select1.n6 select1.t2 150.03
R579 select1.n1 select1.t5 139.78
R580 select1.n0 select1.t1 139.78
R581 select1.n3 select1.t9 138.338
R582 select1.n1 select1.n0 61.346
R583 select1.n5 select1 22.1096
R584 select1.n14 select1.n13 14.6836
R585 select1.n13 select1.n12 14.6704
R586 select1.n12 select1 13.8672
R587 select1.n4 select1 13.8328
R588 select1.n11 select1 12.1605
R589 select1.n14 select1.n2 10.6811
R590 select1.n7 select1.n5 10.4374
R591 select1.n9 select1.n8 8.15359
R592 select1.n2 select1 6.1445
R593 select1.n4 select1 5.16179
R594 select1.n9 select1.n4 4.65206
R595 select1.n8 select1 3.93896
R596 select1 select1.n11 2.34717
R597 select1.n5 select1 2.16665
R598 select1.n8 select1.n7 1.57588
R599 select1.n13 select1.n9 0.79438
R600 select1.n12 select1 0.6405
R601 select1 select1.n14 0.248606
R602 select2.n5 select2.t0 450.938
R603 select2.n5 select2.t2 445.666
R604 select2.n0 select2.t3 377.486
R605 select2.n0 select2.t4 374.202
R606 select2.n2 select2.t1 212.081
R607 select2.n1 select2.t6 212.081
R608 select2.n3 select2.n2 183.441
R609 select2.n2 select2.t7 139.78
R610 select2.n1 select2.t5 139.78
R611 select2.n2 select2.n1 61.346
R612 select2.n8 select2.n7 12.4093
R613 select2 select2.n3 11.4331
R614 select2.n7 select2.n6 9.10647
R615 select2.n7 select2.n4 8.98648
R616 select2.n3 select2 5.6325
R617 select2.n4 select2 5.02323
R618 select2.n6 select2.n5 3.1748
R619 select2.n8 select2.n0 2.10165
R620 select2.n9 select2 1.09425