* NGSPICE file created from passgatesCtrl_parax.ext - technology: sky130A

.subckt passgatesctrl_parax gno0 gno2 gpo0 gpo1 gpo2 gpo3 select0 VDD gno1 select1
+ gno3 VSS
X0 VSS.t57 select0.t0 a_2822_3855# PHY_EDGE_ROW_4_Right_4.VNB sky130_fd_pr__nfet_01v8 ad=0.097 pd=0.975 as=0.1092 ps=1.36 w=0.42 l=0.15
X1 VSS.t74 VDD.t88 VSS.t73 PHY_EDGE_ROW_4_Right_4.VNB sky130_fd_pr__nfet_01v8 ad=0.143 pd=1.62 as=0 ps=0 w=0.55 l=0.59
X2 VDD.t46 a_2101_3476# gpo0.t1 _12_.VPB sky130_fd_pr__pfet_01v8_hvt ad=0.11455 pd=1.08 as=0.2054 ps=2.1 w=0.79 l=0.15
X3 net6 a_2879_2223# VDD.t38 _09_.VPB sky130_fd_pr__pfet_01v8_hvt ad=0.2054 pd=2.1 as=0.11455 ps=1.08 w=0.79 l=0.15
X4 a_2463_3073# net1 VDD.t7 _09_.VPB sky130_fd_pr__pfet_01v8_hvt ad=0.1092 pd=1.36 as=0.0714 ps=0.76 w=0.42 l=0.15
X5 VSS.t34 net2 a_2235_4215# PHY_EDGE_ROW_4_Right_4.VNB sky130_fd_pr__nfet_01v8 ad=0.1575 pd=1.17 as=0.1092 ps=1.36 w=0.42 l=0.15
X6 _02_ a_1448_2473# VDD.t37 _09_.VPB sky130_fd_pr__pfet_01v8_hvt ad=0.34 pd=2.68 as=0.14575 ps=1.335 w=1 l=0.15
X7 gpo3.t1 a_3431_2223# VDD.t2 _09_.VPB sky130_fd_pr__pfet_01v8_hvt ad=0.2054 pd=2.1 as=0.11455 ps=1.08 w=0.79 l=0.15
X8 VSS.t8 net1 a_1448_2473# PHY_EDGE_ROW_4_Right_4.VNB sky130_fd_pr__nfet_01v8 ad=0.10025 pd=0.985 as=0.0567 ps=0.69 w=0.42 l=0.15
X9 VSS.t61 a_2101_3476# gpo0.t0 PHY_EDGE_ROW_4_Right_4.VNB sky130_fd_pr__nfet_01v8 ad=0.0754 pd=0.81 as=0.1352 ps=1.56 w=0.52 l=0.15
X10 net3 net1 VSS.t5 PHY_EDGE_ROW_4_Right_4.VNB sky130_fd_pr__nfet_01v8 ad=0.08775 pd=0.92 as=0.169 ps=1.82 w=0.65 l=0.15
X11 VDD.t21 a_2835_2986# net8 _09_.VPB sky130_fd_pr__pfet_01v8_hvt ad=0.11455 pd=1.08 as=0.2054 ps=2.1 w=0.79 l=0.15
X12 VSS.t52 a_2007_4074# net4 PHY_EDGE_ROW_4_Right_4.VNB sky130_fd_pr__nfet_01v8 ad=0.0754 pd=0.81 as=0.1352 ps=1.56 w=0.52 l=0.15
X13 net6 a_2879_2223# VSS.t54 PHY_EDGE_ROW_4_Right_4.VNB sky130_fd_pr__nfet_01v8 ad=0.1352 pd=1.56 as=0.0754 ps=0.81 w=0.52 l=0.15
X14 a_1587_3855# a_1407_3855# VDD.t48 _12_.VPB sky130_fd_pr__pfet_01v8_hvt ad=0.0609 pd=0.71 as=0.0714 ps=0.76 w=0.42 l=0.15
X15 net3 net2 a_1873_3561# _12_.VPB sky130_fd_pr__pfet_01v8_hvt ad=0.26 pd=2.52 as=0.105 ps=1.21 w=1 l=0.15
X16 VDD.t0 a_3123_2999# _03_ _09_.VPB sky130_fd_pr__pfet_01v8_hvt ad=0.16655 pd=1.39 as=0.475 ps=2.95 w=1 l=0.15
X17 VDD.t39 _02_ a_1499_3311# _12_.VPB sky130_fd_pr__pfet_01v8_hvt ad=0.11455 pd=1.08 as=0.2054 ps=2.1 w=0.79 l=0.15
X18 net10 net1 a_2689_2223# PHY_EDGE_ROW_4_Right_4.VNB sky130_fd_pr__nfet_01v8 ad=0.169 pd=1.82 as=0.08775 ps=0.92 w=0.65 l=0.15
X19 gno1.t1 a_1407_2767# VDD.t15 _09_.VPB sky130_fd_pr__pfet_01v8_hvt ad=0.2054 pd=2.1 as=0.11455 ps=1.08 w=0.79 l=0.15
X20 gpo3.t0 a_3431_2223# VSS.t2 PHY_EDGE_ROW_4_Right_4.VNB sky130_fd_pr__nfet_01v8 ad=0.1352 pd=1.56 as=0.0754 ps=0.81 w=0.52 l=0.15
X21 a_2427_3971# a_2235_4215# VSS.t51 PHY_EDGE_ROW_4_Right_4.VNB sky130_fd_pr__nfet_01v8 ad=0.0567 pd=0.69 as=0.1575 ps=1.17 w=0.42 l=0.15
X22 VSS.t39 a_2838_4551# a_2787_4399# PHY_EDGE_ROW_4_Right_4.VNB sky130_fd_pr__nfet_01v8 ad=0.097 pd=0.975 as=0.169 ps=1.82 w=0.65 l=0.15
X23 a_3318_3855# a_3141_3855# VSS.t81 PHY_EDGE_ROW_4_Right_4.VNB sky130_fd_pr__nfet_01v8 ad=0.169 pd=1.82 as=0.097 ps=0.975 w=0.65 l=0.15
X24 gno2.t1 a_2327_2223# VDD.t84 _09_.VPB sky130_fd_pr__pfet_01v8_hvt ad=0.2054 pd=2.1 as=0.11455 ps=1.08 w=0.79 l=0.15
X25 gno3.t1 a_3155_2223# VDD.t57 _09_.VPB sky130_fd_pr__pfet_01v8_hvt ad=0.2054 pd=2.1 as=0.11455 ps=1.08 w=0.79 l=0.15
X26 a_1683_3127# net1 VDD.t9 _09_.VPB sky130_fd_pr__pfet_01v8_hvt ad=0.1176 pd=1.4 as=0.1092 ps=1.36 w=0.42 l=0.15
X27 VDD.t83 VSS.t88 VDD.t82 FILLER_0_4_3.VPB sky130_fd_pr__pfet_01v8_hvt ad=0.2262 pd=2.26 as=0 ps=0 w=0.87 l=0.59
X28 a_2838_4551# a_2934_4373# VSS.t78 PHY_EDGE_ROW_4_Right_4.VNB sky130_fd_pr__nfet_01v8 ad=0.1092 pd=1.36 as=0.097 ps=0.975 w=0.42 l=0.15
X29 a_2287_2741# net2 VDD.t28 _09_.VPB sky130_fd_pr__pfet_01v8_hvt ad=0.0609 pd=0.71 as=0.2279 ps=1.74 w=0.42 l=0.15
X30 a_3297_3105# net2 VSS.t37 PHY_EDGE_ROW_4_Right_4.VNB sky130_fd_pr__nfet_01v8 ad=0.0567 pd=0.69 as=0.1118 ps=1.04 w=0.42 l=0.15
X31 VSS.t55 _02_ a_1499_3311# PHY_EDGE_ROW_4_Right_4.VNB sky130_fd_pr__nfet_01v8 ad=0.0754 pd=0.81 as=0.1352 ps=1.56 w=0.52 l=0.15
X32 VSS.t76 VDD.t89 VSS.t75 PHY_EDGE_ROW_4_Right_4.VNB sky130_fd_pr__nfet_01v8 ad=0.143 pd=1.62 as=0 ps=0 w=0.55 l=0.59
X33 VDD.t81 VSS.t89 VDD.t80 _12_.VPB sky130_fd_pr__pfet_01v8_hvt ad=0.2262 pd=2.26 as=0 ps=0 w=0.87 l=0.59
X34 _00_ a_2427_3971# VSS.t64 PHY_EDGE_ROW_4_Right_4.VNB sky130_fd_pr__nfet_01v8 ad=0.1755 pd=1.84 as=0.101875 ps=0.99 w=0.65 l=0.15
X35 a_2287_2741# a_2463_3073# a_2415_3133# PHY_EDGE_ROW_4_Right_4.VNB sky130_fd_pr__nfet_01v8 ad=0.1092 pd=1.36 as=0.0504 ps=0.66 w=0.42 l=0.15
X36 VSS.t80 a_2287_2741# _04_ PHY_EDGE_ROW_4_Right_4.VNB sky130_fd_pr__nfet_01v8 ad=0.1013 pd=0.99 as=0.169 ps=1.82 w=0.65 l=0.15
X37 VSS.t28 a_2835_2986# net8 PHY_EDGE_ROW_4_Right_4.VNB sky130_fd_pr__nfet_01v8 ad=0.0754 pd=0.81 as=0.1352 ps=1.56 w=0.52 l=0.15
X38 gno2.t0 a_2327_2223# VSS.t84 PHY_EDGE_ROW_4_Right_4.VNB sky130_fd_pr__nfet_01v8 ad=0.1352 pd=1.56 as=0.0754 ps=0.81 w=0.52 l=0.15
X39 net1 a_2822_3855# VDD.t20 _12_.VPB sky130_fd_pr__pfet_01v8_hvt ad=0.26 pd=2.52 as=0.14075 ps=1.325 w=1 l=0.15
X40 gno3.t0 a_3155_2223# VSS.t83 PHY_EDGE_ROW_4_Right_4.VNB sky130_fd_pr__nfet_01v8 ad=0.1352 pd=1.56 as=0.0754 ps=0.81 w=0.52 l=0.15
X41 net10 net2 VDD.t27 _09_.VPB sky130_fd_pr__pfet_01v8_hvt ad=0.135 pd=1.27 as=0.26 ps=2.52 w=1 l=0.15
X42 VSS.t70 VDD.t90 VSS.t69 PHY_EDGE_ROW_4_Right_4.VNB sky130_fd_pr__nfet_01v8 ad=0.143 pd=1.62 as=0 ps=0 w=0.55 l=0.59
X43 VSS.t10 net1 a_3141_3855# PHY_EDGE_ROW_4_Right_4.VNB sky130_fd_pr__nfet_01v8 ad=0.097 pd=0.975 as=0.1092 ps=1.36 w=0.42 l=0.15
X44 VDD.t17 a_3440_4551# net2 FILLER_0_4_3.VPB sky130_fd_pr__pfet_01v8_hvt ad=0.14075 pd=1.325 as=0.26 ps=2.52 w=1 l=0.15
X45 gno1.t0 a_1407_2767# VSS.t12 PHY_EDGE_ROW_4_Right_4.VNB sky130_fd_pr__nfet_01v8 ad=0.1352 pd=1.56 as=0.0754 ps=0.81 w=0.52 l=0.15
X46 VDD.t8 net1 a_2509_3971# _12_.VPB sky130_fd_pr__pfet_01v8_hvt ad=0.14825 pd=1.34 as=0.0441 ps=0.63 w=0.42 l=0.15
X47 a_3123_2999# net2 VDD.t22 _09_.VPB sky130_fd_pr__pfet_01v8_hvt ad=0.0567 pd=0.69 as=0.16655 ps=1.39 w=0.42 l=0.15
X48 _05_ a_1587_3855# VDD.t45 _12_.VPB sky130_fd_pr__pfet_01v8_hvt ad=0.26 pd=2.52 as=0.2279 ps=1.74 w=1 l=0.15
X49 VDD.t35 a_3121_4551# a_2934_4373# FILLER_0_4_3.VPB sky130_fd_pr__pfet_01v8_hvt ad=0.14075 pd=1.325 as=0.26 ps=2.52 w=1 l=0.15
X50 _02_ a_1448_2473# VSS.t53 PHY_EDGE_ROW_4_Right_4.VNB sky130_fd_pr__nfet_01v8 ad=0.169 pd=1.82 as=0.10025 ps=0.985 w=0.65 l=0.15
X51 VSS.t30 net2 a_1875_2883# PHY_EDGE_ROW_4_Right_4.VNB sky130_fd_pr__nfet_01v8 ad=0.101875 pd=0.99 as=0.0567 ps=0.69 w=0.42 l=0.15
X52 a_2653_3476# net3 VDD.t3 _12_.VPB sky130_fd_pr__pfet_01v8_hvt ad=0.2054 pd=2.1 as=0.11455 ps=1.08 w=0.79 l=0.15
X53 VDD.t79 VSS.t90 VDD.t78 _09_.VPB sky130_fd_pr__pfet_01v8_hvt ad=0.2262 pd=2.26 as=0 ps=0 w=0.87 l=0.59
X54 VDD.t40 net6 a_3155_2223# _09_.VPB sky130_fd_pr__pfet_01v8_hvt ad=0.11455 pd=1.08 as=0.2054 ps=2.1 w=0.79 l=0.15
X55 a_3481_3476# net9 VDD.t53 _12_.VPB sky130_fd_pr__pfet_01v8_hvt ad=0.2054 pd=2.1 as=0.11455 ps=1.08 w=0.79 l=0.15
X56 VSS.t77 a_3318_3855# a_3424_3855# PHY_EDGE_ROW_4_Right_4.VNB sky130_fd_pr__nfet_01v8 ad=0.097 pd=0.975 as=0.1092 ps=1.36 w=0.42 l=0.15
X57 a_2415_3133# net2 VSS.t32 PHY_EDGE_ROW_4_Right_4.VNB sky130_fd_pr__nfet_01v8 ad=0.0504 pd=0.66 as=0.1013 ps=0.99 w=0.42 l=0.15
X58 a_1407_3855# net2 VSS.t36 PHY_EDGE_ROW_4_Right_4.VNB sky130_fd_pr__nfet_01v8 ad=0.1092 pd=1.36 as=0.1092 ps=1.36 w=0.42 l=0.15
X59 VDD.t5 _03_ a_2879_2223# _09_.VPB sky130_fd_pr__pfet_01v8_hvt ad=0.11455 pd=1.08 as=0.2054 ps=2.1 w=0.79 l=0.15
X60 a_1530_2473# net2 a_1448_2473# _09_.VPB sky130_fd_pr__pfet_01v8_hvt ad=0.0441 pd=0.63 as=0.1092 ps=1.36 w=0.42 l=0.15
X61 a_2838_4551# a_2934_4373# VDD.t52 FILLER_0_4_3.VPB sky130_fd_pr__pfet_01v8_hvt ad=0.1092 pd=1.36 as=0.14075 ps=1.325 w=0.42 l=0.15
X62 VSS.t29 net2 net3 PHY_EDGE_ROW_4_Right_4.VNB sky130_fd_pr__nfet_01v8 ad=0.169 pd=1.82 as=0.08775 ps=0.92 w=0.65 l=0.15
X63 _01_ a_1875_2883# VSS.t38 PHY_EDGE_ROW_4_Right_4.VNB sky130_fd_pr__nfet_01v8 ad=0.1755 pd=1.84 as=0.101875 ps=0.99 w=0.65 l=0.15
X64 a_2653_3476# net3 VSS.t3 PHY_EDGE_ROW_4_Right_4.VNB sky130_fd_pr__nfet_01v8 ad=0.1352 pd=1.56 as=0.0754 ps=0.81 w=0.52 l=0.15
X65 VSS.t56 net6 a_3155_2223# PHY_EDGE_ROW_4_Right_4.VNB sky130_fd_pr__nfet_01v8 ad=0.0754 pd=0.81 as=0.1352 ps=1.56 w=0.52 l=0.15
X66 a_3481_3476# net9 VSS.t79 PHY_EDGE_ROW_4_Right_4.VNB sky130_fd_pr__nfet_01v8 ad=0.1352 pd=1.56 as=0.0754 ps=0.81 w=0.52 l=0.15
X67 net7 a_1499_3311# VDD.t47 _12_.VPB sky130_fd_pr__pfet_01v8_hvt ad=0.2054 pd=2.1 as=0.11455 ps=1.08 w=0.79 l=0.15
X68 a_2377_3476# net8 VDD.t1 _12_.VPB sky130_fd_pr__pfet_01v8_hvt ad=0.2054 pd=2.1 as=0.11455 ps=1.08 w=0.79 l=0.15
X69 VSS.t72 VDD.t91 VSS.t71 PHY_EDGE_ROW_4_Right_4.VNB sky130_fd_pr__nfet_01v8 ad=0.143 pd=1.62 as=0 ps=0 w=0.55 l=0.59
X70 net9 a_3155_3311# VDD.t85 _12_.VPB sky130_fd_pr__pfet_01v8_hvt ad=0.2054 pd=2.1 as=0.11455 ps=1.08 w=0.79 l=0.15
X71 VSS.t4 _03_ a_2879_2223# PHY_EDGE_ROW_4_Right_4.VNB sky130_fd_pr__nfet_01v8 ad=0.0754 pd=0.81 as=0.1352 ps=1.56 w=0.52 l=0.15
X72 VDD.t41 select0.t1 a_2822_3855# _12_.VPB sky130_fd_pr__pfet_01v8_hvt ad=0.14075 pd=1.325 as=0.1092 ps=1.36 w=0.42 l=0.15
X73 a_1448_2473# net2 VSS.t35 PHY_EDGE_ROW_4_Right_4.VNB sky130_fd_pr__nfet_01v8 ad=0.0567 pd=0.69 as=0.1092 ps=1.36 w=0.42 l=0.15
X74 VSS.t45 VDD.t92 VSS.t44 PHY_EDGE_ROW_4_Right_4.VNB sky130_fd_pr__nfet_01v8 ad=0.143 pd=1.62 as=0 ps=0 w=0.55 l=0.59
X75 a_1957_2883# a_1683_3127# a_1875_2883# _09_.VPB sky130_fd_pr__pfet_01v8_hvt ad=0.0441 pd=0.63 as=0.1092 ps=1.36 w=0.42 l=0.15
X76 VSS.t47 VDD.t93 VSS.t46 PHY_EDGE_ROW_4_Right_4.VNB sky130_fd_pr__nfet_01v8 ad=0.143 pd=1.62 as=0 ps=0 w=0.55 l=0.59
X77 VDD.t49 net10 a_3431_2223# _09_.VPB sky130_fd_pr__pfet_01v8_hvt ad=0.11455 pd=1.08 as=0.2054 ps=2.1 w=0.79 l=0.15
X78 a_3318_3855# a_3141_3855# VDD.t55 _12_.VPB sky130_fd_pr__pfet_01v8_hvt ad=0.26 pd=2.52 as=0.14075 ps=1.325 w=1 l=0.15
X79 net7 a_1499_3311# VSS.t62 PHY_EDGE_ROW_4_Right_4.VNB sky130_fd_pr__nfet_01v8 ad=0.1352 pd=1.56 as=0.0754 ps=0.81 w=0.52 l=0.15
X80 a_3601_3855# a_3424_3855# VSS.t87 PHY_EDGE_ROW_4_Right_4.VNB sky130_fd_pr__nfet_01v8 ad=0.169 pd=1.82 as=0.097 ps=0.975 w=0.65 l=0.15
X81 a_2377_3476# net8 VSS.t1 PHY_EDGE_ROW_4_Right_4.VNB sky130_fd_pr__nfet_01v8 ad=0.1352 pd=1.56 as=0.0754 ps=0.81 w=0.52 l=0.15
X82 VSS.t66 VDD.t94 VSS.t65 PHY_EDGE_ROW_4_Right_4.VNB sky130_fd_pr__nfet_01v8 ad=0.143 pd=1.62 as=0 ps=0 w=0.55 l=0.59
X83 net5 a_2051_2223# VDD.t44 _09_.VPB sky130_fd_pr__pfet_01v8_hvt ad=0.2054 pd=2.1 as=0.11455 ps=1.08 w=0.79 l=0.15
X84 net9 a_3155_3311# VSS.t85 PHY_EDGE_ROW_4_Right_4.VNB sky130_fd_pr__nfet_01v8 ad=0.1352 pd=1.56 as=0.0754 ps=0.81 w=0.52 l=0.15
X85 a_2007_4074# _05_ VDD.t32 _12_.VPB sky130_fd_pr__pfet_01v8_hvt ad=0.2054 pd=2.1 as=0.11455 ps=1.08 w=0.79 l=0.15
X86 a_2689_2223# net2 VSS.t31 PHY_EDGE_ROW_4_Right_4.VNB sky130_fd_pr__nfet_01v8 ad=0.08775 pd=0.92 as=0.169 ps=1.82 w=0.65 l=0.15
X87 VSS.t6 net1 a_2463_3073# PHY_EDGE_ROW_4_Right_4.VNB sky130_fd_pr__nfet_01v8 ad=0.1092 pd=1.36 as=0.1092 ps=1.36 w=0.42 l=0.15
X88 VSS.t11 net1 a_1677_4221# PHY_EDGE_ROW_4_Right_4.VNB sky130_fd_pr__nfet_01v8 ad=0.1013 pd=0.99 as=0.0504 ps=0.66 w=0.42 l=0.15
X89 a_3440_4551# select1.t0 VSS.t41 PHY_EDGE_ROW_4_Right_4.VNB sky130_fd_pr__nfet_01v8 ad=0.1092 pd=1.36 as=0.097 ps=0.975 w=0.42 l=0.15
X90 VDD.t42 net4 a_1407_2767# _09_.VPB sky130_fd_pr__pfet_01v8_hvt ad=0.11455 pd=1.08 as=0.2054 ps=2.1 w=0.79 l=0.15
X91 a_2235_4215# net2 VDD.t25 _12_.VPB sky130_fd_pr__pfet_01v8_hvt ad=0.1176 pd=1.4 as=0.1092 ps=1.36 w=0.42 l=0.15
X92 _00_ a_2427_3971# VDD.t50 _12_.VPB sky130_fd_pr__pfet_01v8_hvt ad=0.27 pd=2.54 as=0.14825 ps=1.34 w=1 l=0.15
X93 VSS.t63 net10 a_3431_2223# PHY_EDGE_ROW_4_Right_4.VNB sky130_fd_pr__nfet_01v8 ad=0.0754 pd=0.81 as=0.1352 ps=1.56 w=0.52 l=0.15
X94 VDD.t54 a_2287_2741# _04_ _09_.VPB sky130_fd_pr__pfet_01v8_hvt ad=0.2279 pd=1.74 as=0.26 ps=2.52 w=1 l=0.15
X95 VDD.t33 net5 a_2327_2223# _09_.VPB sky130_fd_pr__pfet_01v8_hvt ad=0.11455 pd=1.08 as=0.2054 ps=2.1 w=0.79 l=0.15
X96 net5 a_2051_2223# VSS.t59 PHY_EDGE_ROW_4_Right_4.VNB sky130_fd_pr__nfet_01v8 ad=0.1352 pd=1.56 as=0.0754 ps=0.81 w=0.52 l=0.15
X97 VDD.t77 VSS.t91 VDD.t76 _09_.VPB sky130_fd_pr__pfet_01v8_hvt ad=0.2262 pd=2.26 as=0 ps=0 w=0.87 l=0.59
X98 VDD.t75 VSS.t92 VDD.t74 _12_.VPB sky130_fd_pr__pfet_01v8_hvt ad=0.2262 pd=2.26 as=0 ps=0 w=0.87 l=0.59
X99 VDD.t30 a_2838_4551# a_2787_4399# FILLER_0_4_3.VPB sky130_fd_pr__pfet_01v8_hvt ad=0.14075 pd=1.325 as=0.26 ps=2.52 w=1 l=0.15
X100 VSS.t68 VDD.t95 VSS.t67 PHY_EDGE_ROW_4_Right_4.VNB sky130_fd_pr__nfet_01v8 ad=0.143 pd=1.62 as=0 ps=0 w=0.55 l=4.73
X101 VDD.t19 _00_ a_3155_3311# _12_.VPB sky130_fd_pr__pfet_01v8_hvt ad=0.11455 pd=1.08 as=0.2054 ps=2.1 w=0.79 l=0.15
X102 a_3121_4551# net2 VSS.t33 PHY_EDGE_ROW_4_Right_4.VNB sky130_fd_pr__nfet_01v8 ad=0.1092 pd=1.36 as=0.097 ps=0.975 w=0.42 l=0.15
X103 VSS.t7 net1 a_1683_3127# PHY_EDGE_ROW_4_Right_4.VNB sky130_fd_pr__nfet_01v8 ad=0.1575 pd=1.17 as=0.1092 ps=1.36 w=0.42 l=0.15
X104 VDD.t73 VSS.t93 VDD.t72 _09_.VPB sky130_fd_pr__pfet_01v8_hvt ad=0.2262 pd=2.26 as=0 ps=0 w=0.87 l=0.59
X105 a_2007_4074# _05_ VSS.t43 PHY_EDGE_ROW_4_Right_4.VNB sky130_fd_pr__nfet_01v8 ad=0.1352 pd=1.56 as=0.0754 ps=0.81 w=0.52 l=0.15
X106 VSS.t48 net5 a_2327_2223# PHY_EDGE_ROW_4_Right_4.VNB sky130_fd_pr__nfet_01v8 ad=0.0754 pd=0.81 as=0.1352 ps=1.56 w=0.52 l=0.15
X107 a_2835_2986# _01_ VDD.t86 _09_.VPB sky130_fd_pr__pfet_01v8_hvt ad=0.2054 pd=2.1 as=0.11455 ps=1.08 w=0.79 l=0.15
X108 VDD.t11 net1 a_1587_3855# _12_.VPB sky130_fd_pr__pfet_01v8_hvt ad=0.2279 pd=1.74 as=0.0609 ps=0.71 w=0.42 l=0.15
X109 a_1677_4221# a_1407_3855# a_1587_3855# PHY_EDGE_ROW_4_Right_4.VNB sky130_fd_pr__nfet_01v8 ad=0.0504 pd=0.66 as=0.1092 ps=1.36 w=0.42 l=0.15
X110 VSS.t58 net4 a_1407_2767# PHY_EDGE_ROW_4_Right_4.VNB sky130_fd_pr__nfet_01v8 ad=0.0754 pd=0.81 as=0.1352 ps=1.56 w=0.52 l=0.15
X111 VDD.t18 _04_ a_2051_2223# _09_.VPB sky130_fd_pr__pfet_01v8_hvt ad=0.11455 pd=1.08 as=0.2054 ps=2.1 w=0.79 l=0.15
X112 VSS.t16 _00_ a_3155_3311# PHY_EDGE_ROW_4_Right_4.VNB sky130_fd_pr__nfet_01v8 ad=0.0754 pd=0.81 as=0.1352 ps=1.56 w=0.52 l=0.15
X113 VDD.t71 VSS.t94 VDD.t70 FILLER_0_4_3.VPB sky130_fd_pr__pfet_01v8_hvt ad=0.2262 pd=2.26 as=0 ps=0 w=0.87 l=0.59
X114 VSS.t24 VDD.t96 VSS.t23 PHY_EDGE_ROW_4_Right_4.VNB sky130_fd_pr__nfet_01v8 ad=0.143 pd=1.62 as=0 ps=0 w=0.55 l=0.59
X115 VDD.t14 net1 a_3141_3855# _12_.VPB sky130_fd_pr__pfet_01v8_hvt ad=0.14075 pd=1.325 as=0.1092 ps=1.36 w=0.42 l=0.15
X116 VSS.t26 VDD.t97 VSS.t25 PHY_EDGE_ROW_4_Right_4.VNB sky130_fd_pr__nfet_01v8 ad=0.143 pd=1.62 as=0 ps=0 w=0.55 l=0.59
X117 VSS.t18 VDD.t98 VSS.t17 PHY_EDGE_ROW_4_Right_4.VNB sky130_fd_pr__nfet_01v8 ad=0.143 pd=1.62 as=0 ps=0 w=0.55 l=0.59
X118 VSS.t9 net1 a_2427_3971# PHY_EDGE_ROW_4_Right_4.VNB sky130_fd_pr__nfet_01v8 ad=0.101875 pd=0.99 as=0.0567 ps=0.69 w=0.42 l=0.15
X119 a_3440_4551# select1.t1 VDD.t43 FILLER_0_4_3.VPB sky130_fd_pr__pfet_01v8_hvt ad=0.1092 pd=1.36 as=0.14075 ps=1.325 w=0.42 l=0.15
X120 a_1875_2883# a_1683_3127# VSS.t40 PHY_EDGE_ROW_4_Right_4.VNB sky130_fd_pr__nfet_01v8 ad=0.0567 pd=0.69 as=0.1575 ps=1.17 w=0.42 l=0.15
X121 VSS.t0 a_3123_2999# _03_ PHY_EDGE_ROW_4_Right_4.VNB sky130_fd_pr__nfet_01v8 ad=0.1118 pd=1.04 as=0.182 ps=1.86 w=0.65 l=0.15
X122 _01_ a_1875_2883# VDD.t29 _09_.VPB sky130_fd_pr__pfet_01v8_hvt ad=0.27 pd=2.54 as=0.14825 ps=1.34 w=1 l=0.15
X123 VSS.t20 VDD.t99 VSS.t19 PHY_EDGE_ROW_4_Right_4.VNB sky130_fd_pr__nfet_01v8 ad=0.143 pd=1.62 as=0 ps=0 w=0.55 l=0.59
X124 VDD.t4 a_2463_3073# a_2287_2741# _09_.VPB sky130_fd_pr__pfet_01v8_hvt ad=0.0714 pd=0.76 as=0.0609 ps=0.71 w=0.42 l=0.15
X125 VDD.t56 a_2653_3476# gno0.t1 _12_.VPB sky130_fd_pr__pfet_01v8_hvt ad=0.11455 pd=1.08 as=0.2054 ps=2.1 w=0.79 l=0.15
X126 VDD.t10 net1 a_1530_2473# _09_.VPB sky130_fd_pr__pfet_01v8_hvt ad=0.14575 pd=1.335 as=0.0441 ps=0.63 w=0.42 l=0.15
X127 VDD.t34 a_3481_3476# gpo2.t1 _12_.VPB sky130_fd_pr__pfet_01v8_hvt ad=0.11455 pd=1.08 as=0.2054 ps=2.1 w=0.79 l=0.15
X128 VSS.t15 _04_ a_2051_2223# PHY_EDGE_ROW_4_Right_4.VNB sky130_fd_pr__nfet_01v8 ad=0.0754 pd=0.81 as=0.1352 ps=1.56 w=0.52 l=0.15
X129 a_3123_2999# net1 a_3297_3105# PHY_EDGE_ROW_4_Right_4.VNB sky130_fd_pr__nfet_01v8 ad=0.1176 pd=1.4 as=0.0567 ps=0.69 w=0.42 l=0.15
X130 VSS.t14 a_3440_4551# net2 PHY_EDGE_ROW_4_Right_4.VNB sky130_fd_pr__nfet_01v8 ad=0.097 pd=0.975 as=0.169 ps=1.82 w=0.65 l=0.15
X131 a_2835_2986# _01_ VSS.t86 PHY_EDGE_ROW_4_Right_4.VNB sky130_fd_pr__nfet_01v8 ad=0.1352 pd=1.56 as=0.0754 ps=0.81 w=0.52 l=0.15
X132 a_2101_3476# net7 VDD.t31 _12_.VPB sky130_fd_pr__pfet_01v8_hvt ad=0.2054 pd=2.1 as=0.11455 ps=1.08 w=0.79 l=0.15
X133 VDD.t69 VSS.t95 VDD.t68 FILLER_0_4_3.VPB sky130_fd_pr__pfet_01v8_hvt ad=0.2262 pd=2.26 as=0 ps=0 w=0.87 l=4.73
X134 a_3121_4551# net2 VDD.t23 FILLER_0_4_3.VPB sky130_fd_pr__pfet_01v8_hvt ad=0.1092 pd=1.36 as=0.14075 ps=1.325 w=0.42 l=0.15
X135 VDD.t51 a_3318_3855# a_3424_3855# _12_.VPB sky130_fd_pr__pfet_01v8_hvt ad=0.14075 pd=1.325 as=0.1092 ps=1.36 w=0.42 l=0.15
X136 VDD.t13 net1 net10 _09_.VPB sky130_fd_pr__pfet_01v8_hvt ad=0.26 pd=2.52 as=0.135 ps=1.27 w=1 l=0.15
X137 VDD.t26 net2 a_1407_3855# _12_.VPB sky130_fd_pr__pfet_01v8_hvt ad=0.0714 pd=0.76 as=0.1092 ps=1.36 w=0.42 l=0.15
X138 VSS.t82 a_2653_3476# gno0.t0 PHY_EDGE_ROW_4_Right_4.VNB sky130_fd_pr__nfet_01v8 ad=0.0754 pd=0.81 as=0.1352 ps=1.56 w=0.52 l=0.15
X139 VSS.t49 a_3481_3476# gpo2.t0 PHY_EDGE_ROW_4_Right_4.VNB sky130_fd_pr__nfet_01v8 ad=0.0754 pd=0.81 as=0.1352 ps=1.56 w=0.52 l=0.15
X140 VSS.t50 a_3121_4551# a_2934_4373# PHY_EDGE_ROW_4_Right_4.VNB sky130_fd_pr__nfet_01v8 ad=0.097 pd=0.975 as=0.169 ps=1.82 w=0.65 l=0.15
X141 a_3601_3855# a_3424_3855# VDD.t87 _12_.VPB sky130_fd_pr__pfet_01v8_hvt ad=0.26 pd=2.52 as=0.14075 ps=1.325 w=1 l=0.15
X142 VDD.t24 net2 a_1957_2883# _09_.VPB sky130_fd_pr__pfet_01v8_hvt ad=0.14825 pd=1.34 as=0.0441 ps=0.63 w=0.42 l=0.15
X143 VDD.t67 VSS.t96 VDD.t66 _12_.VPB sky130_fd_pr__pfet_01v8_hvt ad=0.2262 pd=2.26 as=0 ps=0 w=0.87 l=0.59
X144 VDD.t16 a_2377_3476# gpo1.t1 _12_.VPB sky130_fd_pr__pfet_01v8_hvt ad=0.11455 pd=1.08 as=0.2054 ps=2.1 w=0.79 l=0.15
X145 a_2509_3971# a_2235_4215# a_2427_3971# _12_.VPB sky130_fd_pr__pfet_01v8_hvt ad=0.0441 pd=0.63 as=0.1092 ps=1.36 w=0.42 l=0.15
X146 VDD.t6 net1 a_3123_2999# _09_.VPB sky130_fd_pr__pfet_01v8_hvt ad=0.1176 pd=1.4 as=0.0567 ps=0.69 w=0.42 l=0.15
X147 a_2101_3476# net7 VSS.t42 PHY_EDGE_ROW_4_Right_4.VNB sky130_fd_pr__nfet_01v8 ad=0.1352 pd=1.56 as=0.0754 ps=0.81 w=0.52 l=0.15
X148 net1 a_2822_3855# VSS.t27 PHY_EDGE_ROW_4_Right_4.VNB sky130_fd_pr__nfet_01v8 ad=0.169 pd=1.82 as=0.097 ps=0.975 w=0.65 l=0.15
X149 VDD.t65 VSS.t97 VDD.t64 FILLER_0_4_3.VPB sky130_fd_pr__pfet_01v8_hvt ad=0.2262 pd=2.26 as=0 ps=0 w=0.87 l=0.59
X150 VDD.t63 VSS.t98 VDD.t62 _12_.VPB sky130_fd_pr__pfet_01v8_hvt ad=0.2262 pd=2.26 as=0 ps=0 w=0.87 l=0.59
X151 VDD.t61 VSS.t99 VDD.t60 _12_.VPB sky130_fd_pr__pfet_01v8_hvt ad=0.2262 pd=2.26 as=0 ps=0 w=0.87 l=0.59
X152 VDD.t59 VSS.t100 VDD.t58 _09_.VPB sky130_fd_pr__pfet_01v8_hvt ad=0.2262 pd=2.26 as=0 ps=0 w=0.87 l=0.59
X153 VSS.t13 a_2377_3476# gpo1.t0 PHY_EDGE_ROW_4_Right_4.VNB sky130_fd_pr__nfet_01v8 ad=0.0754 pd=0.81 as=0.1352 ps=1.56 w=0.52 l=0.15
X154 _05_ a_1587_3855# VSS.t60 PHY_EDGE_ROW_4_Right_4.VNB sky130_fd_pr__nfet_01v8 ad=0.169 pd=1.82 as=0.1013 ps=0.99 w=0.65 l=0.15
X155 VSS.t22 VDD.t100 VSS.t21 PHY_EDGE_ROW_4_Right_4.VNB sky130_fd_pr__nfet_01v8 ad=0.143 pd=1.62 as=0 ps=0 w=0.55 l=0.59
X156 VDD.t36 a_2007_4074# net4 _12_.VPB sky130_fd_pr__pfet_01v8_hvt ad=0.11455 pd=1.08 as=0.2054 ps=2.1 w=0.79 l=0.15
X157 a_1873_3561# net1 VDD.t12 _12_.VPB sky130_fd_pr__pfet_01v8_hvt ad=0.105 pd=1.21 as=0.26 ps=2.52 w=1 l=0.15
R0 select0.n0 select0.t1 323.55
R1 select0.n0 select0.t0 195.017
R2 select0.n1 select0.n0 152.792
R3 select0 select0.n1 9.4552
R4 select0.n1 select0 2.2438
R5 VSS.n200 VSS.t92 262.784
R6 VSS.n201 VSS.t93 262.784
R7 VSS.n262 VSS.t98 262.784
R8 VSS.n263 VSS.t100 262.784
R9 VSS.n45 VSS.t97 262.784
R10 VSS.n46 VSS.t99 262.784
R11 VSS.n301 VSS.t88 262.784
R12 VSS.n302 VSS.t89 262.784
R13 VSS.n311 VSS.t95 262.719
R14 VSS.n229 VSS.t96 259.082
R15 VSS.n95 VSS.t90 259.082
R16 VSS.n150 VSS.t91 259.082
R17 VSS.n335 VSS.t94 259.082
R18 VSS.n146 VSS.t35 246.506
R19 VSS.n238 VSS.t6 237.327
R20 VSS.n300 VSS.t36 237.327
R21 VSS.n7 VSS.t67 218.203
R22 VSS.n230 VSS.t18 214.456
R23 VSS.n26 VSS.t17 214.456
R24 VSS.n200 VSS.t47 214.456
R25 VSS.n200 VSS.t46 214.456
R26 VSS.n201 VSS.t72 214.456
R27 VSS.n201 VSS.t71 214.456
R28 VSS.n262 VSS.t20 214.456
R29 VSS.n262 VSS.t19 214.456
R30 VSS.n263 VSS.t26 214.456
R31 VSS.n263 VSS.t25 214.456
R32 VSS.n149 VSS.t45 214.456
R33 VSS.n147 VSS.t44 214.456
R34 VSS.n99 VSS.t76 214.456
R35 VSS.n96 VSS.t75 214.456
R36 VSS.n299 VSS.t68 214.456
R37 VSS.n334 VSS.t66 214.456
R38 VSS.n338 VSS.t65 214.456
R39 VSS.n45 VSS.t24 214.456
R40 VSS.n45 VSS.t23 214.456
R41 VSS.n46 VSS.t22 214.456
R42 VSS.n46 VSS.t21 214.456
R43 VSS.n301 VSS.t74 214.456
R44 VSS.n301 VSS.t73 214.456
R45 VSS.n302 VSS.t70 214.456
R46 VSS.n302 VSS.t69 214.456
R47 VSS.n160 VSS.n144 210.601
R48 VSS.n247 VSS.n246 200.231
R49 VSS.n29 VSS.n28 200.105
R50 VSS.n198 VSS.n197 199.739
R51 VSS.n245 VSS.n244 199.739
R52 VSS.n251 VSS.n21 199.739
R53 VSS.n269 VSS.n258 199.739
R54 VSS.n268 VSS.n261 199.739
R55 VSS.n93 VSS.n92 199.739
R56 VSS.n90 VSS.n89 199.739
R57 VSS.n185 VSS.n120 199.739
R58 VSS.n124 VSS.n123 199.739
R59 VSS.n126 VSS.n125 199.739
R60 VSS.n253 VSS.n252 198.475
R61 VSS.n312 VSS.n297 197.476
R62 VSS.n239 VSS.n24 196.442
R63 VSS.n209 VSS.n208 196.442
R64 VSS.n9 VSS.n8 196.442
R65 VSS.n336 VSS.n3 195.612
R66 VSS.n44 VSS.n43 194.809
R67 VSS.n52 VSS.n51 194.809
R68 VSS.n60 VSS.n41 194.809
R69 VSS.n59 VSS.n42 194.809
R70 VSS.n65 VSS.n62 194.809
R71 VSS.n64 VSS.n63 194.809
R72 VSS.n232 VSS.n231 189.335
R73 VSS.n232 VSS.n25 176
R74 VSS.n281 VSS.t29 156.915
R75 VSS.n179 VSS.t31 150.922
R76 VSS.n271 VSS.t5 150.101
R77 VSS.n333 VSS.n5 100.331
R78 VSS.n254 VSS.t7 89.3033
R79 VSS.n254 VSS.t40 88.8109
R80 VSS.n4 VSS.t51 88.6006
R81 VSS.n4 VSS.t34 88.6006
R82 VSS.n28 VSS.t37 72.8576
R83 VSS.n255 VSS.n254 70.457
R84 VSS.n5 VSS.n4 70.4126
R85 VSS.n246 VSS.t32 58.5719
R86 VSS.n297 VSS.t11 58.5719
R87 VSS.n144 VSS.t8 55.7148
R88 VSS.n252 VSS.t30 52.8576
R89 VSS.n3 VSS.t9 52.8576
R90 VSS.n43 VSS.t41 45.7148
R91 VSS.n51 VSS.t77 45.7148
R92 VSS.n41 VSS.t33 45.7148
R93 VSS.n42 VSS.t10 45.7148
R94 VSS.n62 VSS.t78 45.7148
R95 VSS.n63 VSS.t57 45.7148
R96 VSS.n210 VSS.n209 34.6358
R97 VSS.n239 VSS.n237 34.6358
R98 VSS.n53 VSS.n50 34.6358
R99 VSS.n66 VSS.n2 34.6358
R100 VSS.n210 VSS.n207 34.6358
R101 VSS.n243 VSS.n23 34.6358
R102 VSS.n271 VSS.n270 34.6358
R103 VSS.n106 VSS.n105 34.6358
R104 VSS.n186 VSS.n119 34.6358
R105 VSS.n184 VSS.n121 34.6358
R106 VSS.n180 VSS.n121 34.6358
R107 VSS.n174 VSS.n173 34.6358
R108 VSS.n134 VSS.n133 34.6358
R109 VSS.n143 VSS.n134 34.6358
R110 VSS.n162 VSS.n143 34.6358
R111 VSS.n162 VSS.n161 34.6358
R112 VSS.n159 VSS.n145 34.6358
R113 VSS.n57 VSS.n56 34.6358
R114 VSS.n58 VSS.n57 34.6358
R115 VSS.n71 VSS.n70 34.6358
R116 VSS.n70 VSS.n61 34.6358
R117 VSS.n43 VSS.t14 34.506
R118 VSS.n51 VSS.t87 34.506
R119 VSS.n41 VSS.t50 34.506
R120 VSS.n42 VSS.t81 34.506
R121 VSS.n62 VSS.t39 34.506
R122 VSS.n63 VSS.t27 34.506
R123 VSS.n24 VSS.t3 33.462
R124 VSS.n24 VSS.t82 33.462
R125 VSS.n208 VSS.t85 33.462
R126 VSS.n208 VSS.t16 33.462
R127 VSS.n231 VSS.t86 33.462
R128 VSS.n231 VSS.t28 33.462
R129 VSS.n197 VSS.t79 33.462
R130 VSS.n197 VSS.t49 33.462
R131 VSS.n244 VSS.t1 33.462
R132 VSS.n244 VSS.t13 33.462
R133 VSS.n21 VSS.t42 33.462
R134 VSS.n21 VSS.t61 33.462
R135 VSS.n258 VSS.t62 33.462
R136 VSS.n258 VSS.t55 33.462
R137 VSS.n261 VSS.t12 33.462
R138 VSS.n261 VSS.t58 33.462
R139 VSS.n92 VSS.t2 33.462
R140 VSS.n92 VSS.t63 33.462
R141 VSS.n89 VSS.t83 33.462
R142 VSS.n89 VSS.t56 33.462
R143 VSS.n120 VSS.t54 33.462
R144 VSS.n120 VSS.t4 33.462
R145 VSS.n123 VSS.t84 33.462
R146 VSS.n123 VSS.t48 33.462
R147 VSS.n125 VSS.t59 33.462
R148 VSS.n125 VSS.t15 33.462
R149 VSS.n8 VSS.t43 33.462
R150 VSS.n8 VSS.t52 33.462
R151 VSS.n238 VSS.n23 32.377
R152 VSS.n252 VSS.t38 27.5691
R153 VSS.n3 VSS.t64 27.5691
R154 VSS.n144 VSS.t53 26.8576
R155 VSS.n60 VSS.n59 26.7299
R156 VSS.n281 VSS.n280 25.977
R157 VSS.n225 VSS.n224 25.7355
R158 VSS.n101 VSS.n100 25.7355
R159 VSS.n155 VSS.n154 25.7355
R160 VSS.n339 VSS.n2 25.7355
R161 VSS.n246 VSS.t80 25.4291
R162 VSS.n297 VSS.t60 25.4291
R163 VSS.n203 VSS.n202 23.7181
R164 VSS.n267 VSS.n264 23.7181
R165 VSS.n179 VSS.n178 23.7181
R166 VSS.n50 VSS.n47 23.7181
R167 VSS.n28 VSS.t0 22.3257
R168 VSS.n203 VSS.n198 22.2123
R169 VSS.n207 VSS.n198 22.2123
R170 VSS.n237 VSS.n25 22.2123
R171 VSS.n245 VSS.n243 22.2123
R172 VSS.n251 VSS.n20 22.2123
R173 VSS.n270 VSS.n269 22.2123
R174 VSS.n268 VSS.n267 22.2123
R175 VSS.n101 VSS.n93 22.2123
R176 VSS.n105 VSS.n93 22.2123
R177 VSS.n106 VSS.n90 22.2123
R178 VSS.n119 VSS.n90 22.2123
R179 VSS.n186 VSS.n185 22.2123
R180 VSS.n185 VSS.n184 22.2123
R181 VSS.n180 VSS.n179 22.2123
R182 VSS.n178 VSS.n124 22.2123
R183 VSS.n174 VSS.n124 22.2123
R184 VSS.n173 VSS.n126 22.2123
R185 VSS.n133 VSS.n126 22.2123
R186 VSS.n247 VSS.n20 21.4593
R187 VSS.n64 VSS.n61 20.3299
R188 VSS.n271 VSS.n255 19.9534
R189 VSS.n56 VSS.n44 19.9534
R190 VSS.n224 VSS.n29 18.824
R191 VSS.n161 VSS.n160 16.1887
R192 VSS.n209 VSS.n29 15.8123
R193 VSS.n305 VSS.n304 15.3963
R194 VSS.n146 VSS.n145 15.0593
R195 VSS.n280 VSS.n255 14.6829
R196 VSS.n52 VSS.n44 13.177
R197 VSS.n65 VSS.n64 13.177
R198 VSS.n253 VSS.n251 11.2946
R199 VSS.n269 VSS.n268 9.78874
R200 VSS VSS.n96 9.74003
R201 VSS.n149 VSS.n148 9.71789
R202 VSS.n204 VSS.n203 9.3005
R203 VSS.n205 VSS.n198 9.3005
R204 VSS.n207 VSS.n206 9.3005
R205 VSS.n211 VSS.n210 9.3005
R206 VSS.n209 VSS.n30 9.3005
R207 VSS.n224 VSS.n223 9.3005
R208 VSS.n226 VSS.n225 9.3005
R209 VSS.n228 VSS.n227 9.3005
R210 VSS.n235 VSS.n234 9.3005
R211 VSS.n237 VSS.n236 9.3005
R212 VSS.n240 VSS.n239 9.3005
R213 VSS.n241 VSS.n23 9.3005
R214 VSS.n243 VSS.n242 9.3005
R215 VSS.n245 VSS.n22 9.3005
R216 VSS.n248 VSS.n247 9.3005
R217 VSS.n249 VSS.n20 9.3005
R218 VSS.n251 VSS.n250 9.3005
R219 VSS.n253 VSS.n18 9.3005
R220 VSS.n282 VSS.n281 9.3005
R221 VSS.n280 VSS.n279 9.3005
R222 VSS.n272 VSS.n271 9.3005
R223 VSS.n270 VSS.n257 9.3005
R224 VSS.n269 VSS.n259 9.3005
R225 VSS.n268 VSS.n260 9.3005
R226 VSS.n267 VSS.n266 9.3005
R227 VSS.n152 VSS.n151 9.3005
R228 VSS.n154 VSS.n153 9.3005
R229 VSS.n98 VSS.n97 9.3005
R230 VSS.n100 VSS.n94 9.3005
R231 VSS.n102 VSS.n101 9.3005
R232 VSS.n103 VSS.n93 9.3005
R233 VSS.n105 VSS.n104 9.3005
R234 VSS.n107 VSS.n106 9.3005
R235 VSS.n116 VSS.n90 9.3005
R236 VSS.n119 VSS.n118 9.3005
R237 VSS.n187 VSS.n186 9.3005
R238 VSS.n185 VSS.n88 9.3005
R239 VSS.n184 VSS.n183 9.3005
R240 VSS.n182 VSS.n121 9.3005
R241 VSS.n181 VSS.n180 9.3005
R242 VSS.n179 VSS.n122 9.3005
R243 VSS.n178 VSS.n177 9.3005
R244 VSS.n176 VSS.n124 9.3005
R245 VSS.n175 VSS.n174 9.3005
R246 VSS.n173 VSS.n172 9.3005
R247 VSS.n171 VSS.n126 9.3005
R248 VSS.n133 VSS.n127 9.3005
R249 VSS.n136 VSS.n134 9.3005
R250 VSS.n143 VSS.n142 9.3005
R251 VSS.n163 VSS.n162 9.3005
R252 VSS.n161 VSS.n132 9.3005
R253 VSS.n159 VSS.n158 9.3005
R254 VSS.n157 VSS.n145 9.3005
R255 VSS.n156 VSS.n155 9.3005
R256 VSS.n306 VSS.n305 9.3005
R257 VSS.n307 VSS.n298 9.3005
R258 VSS.n309 VSS.n308 9.3005
R259 VSS.n310 VSS.n294 9.3005
R260 VSS.n314 VSS.n313 9.3005
R261 VSS.n296 VSS.n293 9.3005
R262 VSS.n295 VSS.n292 9.3005
R263 VSS.n10 VSS.n9 9.3005
R264 VSS.n329 VSS.n328 9.3005
R265 VSS.n331 VSS.n330 9.3005
R266 VSS.n50 VSS.n49 9.3005
R267 VSS.n54 VSS.n53 9.3005
R268 VSS.n56 VSS.n55 9.3005
R269 VSS.n57 VSS.n37 9.3005
R270 VSS.n58 VSS.n38 9.3005
R271 VSS.n72 VSS.n71 9.3005
R272 VSS.n70 VSS.n69 9.3005
R273 VSS.n68 VSS.n61 9.3005
R274 VSS.n67 VSS.n66 9.3005
R275 VSS.n2 VSS.n0 9.3005
R276 VSS.n340 VSS.n339 9.3005
R277 VSS.n337 VSS.n1 9.3005
R278 VSS.n333 VSS 9.3005
R279 VSS.n330 VSS.n329 8.23546
R280 VSS.n329 VSS.n9 8.23546
R281 VSS.n295 VSS.n9 8.23546
R282 VSS.n296 VSS.n295 8.23546
R283 VSS.n313 VSS.n296 8.23546
R284 VSS.n310 VSS.n309 8.23546
R285 VSS.n309 VSS.n298 8.23546
R286 VSS.n233 VSS.n232 7.84566
R287 VSS.n299 VSS.n298 7.6984
R288 VSS.n281 VSS.n253 7.52991
R289 VSS.n330 VSS.n7 6.44526
R290 VSS.n228 VSS.n26 5.98311
R291 VSS.n99 VSS.n98 5.98311
R292 VSS.n151 VSS.n147 5.98311
R293 VSS.n338 VSS.n337 5.98311
R294 VSS.n247 VSS.n245 5.64756
R295 VSS.n202 VSS.n200 5.13108
R296 VSS.n202 VSS.n201 5.13108
R297 VSS.n264 VSS.n262 5.13108
R298 VSS.n264 VSS.n263 5.13108
R299 VSS.n47 VSS.n45 5.13108
R300 VSS.n47 VSS.n46 5.13108
R301 VSS.n304 VSS.n301 5.13108
R302 VSS.n304 VSS.n302 5.13108
R303 VSS.n7 VSS.n6 4.93764
R304 VSS.n229 VSS.n228 4.8005
R305 VSS.n98 VSS.n95 4.8005
R306 VSS.n151 VSS.n150 4.8005
R307 VSS.n332 VSS.n6 4.62124
R308 VSS.n81 VSS.n35 4.51401
R309 VSS.n40 VSS.n39 4.51401
R310 VSS.n285 VSS.n16 4.51401
R311 VSS.n278 VSS.n277 4.51401
R312 VSS.n216 VSS.n195 4.51401
R313 VSS.n220 VSS.n27 4.51401
R314 VSS.n109 VSS.n108 4.51401
R315 VSS.n189 VSS.n188 4.51401
R316 VSS.n170 VSS.n169 4.51401
R317 VSS.n165 VSS.n164 4.51401
R318 VSS.n327 VSS.n326 4.51401
R319 VSS.n318 VSS.n315 4.51401
R320 VSS.n276 VSS.n256 4.5005
R321 VSS.n284 VSS.n283 4.5005
R322 VSS.n273 VSS.n19 4.5005
R323 VSS.n215 VSS.n214 4.5005
R324 VSS.n213 VSS.n212 4.5005
R325 VSS.n222 VSS.n221 4.5005
R326 VSS.n110 VSS.n91 4.5005
R327 VSS.n115 VSS.n114 4.5005
R328 VSS.n117 VSS.n87 4.5005
R329 VSS.n141 VSS.n131 4.5005
R330 VSS.n135 VSS.n128 4.5005
R331 VSS.n140 VSS.n139 4.5005
R332 VSS.n291 VSS.n11 4.5005
R333 VSS.n322 VSS.n321 4.5005
R334 VSS.n320 VSS.n319 4.5005
R335 VSS.n80 VSS.n79 4.5005
R336 VSS.n78 VSS.n77 4.5005
R337 VSS.n74 VSS.n73 4.5005
R338 VSS.n6 VSS.n5 4.38907
R339 VSS.n336 VSS.n335 4.17441
R340 VSS.n59 VSS.n58 4.14168
R341 VSS.n311 VSS.n310 4.11798
R342 VSS.n71 VSS.n60 3.76521
R343 VSS.n312 VSS.n311 3.67043
R344 VSS.n39 VSS.n33 3.43925
R345 VSS.n82 VSS.n81 3.43925
R346 VSS.n277 VSS.n13 3.43925
R347 VSS.n286 VSS.n285 3.43925