* NGSPICE file created from simplecounter_parax.ext - technology: sky130A

.subckt simplecounter clk enable counter[1] counter[3] counter[5] counter[6]
+ counter[7] counter[8] counter[0] counter[2] counter[4] counter[9] VPWR VGND
X1 clk enable counter[1] counter[3] counter[5] counter[6]
+ counter[7] counter[8] counter[0] counter[2] counter[4] counter[9] VPWR VGND simplecounter_parax
.ends

.subckt simplecounter_parax clk enable counter[1] counter[3] counter[5] counter[6]
+ counter[7] counter[8] counter[0] counter[2] counter[4] counter[9] VPWR VGND
X0 a_2431_7497# a_2302_7241# a_2011_7351# VGND.t487 sky130_fd_pr__nfet_01v8 ad=0.0989 pd=0.995 as=0.0684 ps=0.74 w=0.36 l=0.15
X1 VGND.t700 a_2502_7396# a_2431_7497# VGND.t699 sky130_fd_pr__nfet_01v8 ad=0.12095 pd=1.085 as=0.0989 ps=0.995 w=0.64 l=0.15
X2 VPWR.t386 a_4329_5461# clknet_0_clk.t15 VPWR.t385 sky130_fd_pr__pfet_01v8_hvt ad=0.14 pd=1.28 as=0.14 ps=1.28 w=1 l=0.15
X3 VGND.t440 VPWR.t829 VGND.t439 VGND.t438 sky130_fd_pr__nfet_01v8 ad=0.143 pd=1.62 as=0 ps=0 w=0.55 l=1.05
X4 clknet_0_clk.t31 a_4329_5461# VGND.t693 VGND.t692 sky130_fd_pr__nfet_01v8 ad=0.0588 pd=0.7 as=0.0588 ps=0.7 w=0.42 l=0.15
X5 VPWR.t687 VGND.t817 VPWR.t686 VPWR.t685 sky130_fd_pr__pfet_01v8_hvt ad=0.2262 pd=2.26 as=0 ps=0 w=0.87 l=0.59
X6 VGND.t538 a_5814_4399# clknet_1_1__leaf_clk.t31 VGND.t537 sky130_fd_pr__nfet_01v8 ad=0.0588 pd=0.7 as=0.0588 ps=0.7 w=0.42 l=0.15
X7 VPWR.t332 _05_ a_5333_5321# VPWR.t331 sky130_fd_pr__pfet_01v8_hvt ad=0.1092 pd=1.36 as=0.05775 ps=0.695 w=0.42 l=0.15
X8 VGND.t443 VPWR.t830 VGND.t442 VGND.t441 sky130_fd_pr__nfet_01v8 ad=0.143 pd=1.62 as=0 ps=0 w=0.55 l=4.73
X9 _17_ a_6375_5309# VGND.t595 VGND.t594 sky130_fd_pr__nfet_01v8 ad=0.169 pd=1.82 as=0.196275 ps=1.33 w=0.65 l=0.15
X10 VGND.t445 VPWR.t831 VGND.t444 VGND.t67 sky130_fd_pr__nfet_01v8 ad=0.143 pd=1.62 as=0 ps=0 w=0.55 l=0.59
X11 VPWR.t118 a_6425_2388# counter[6].t0 VPWR.t117 sky130_fd_pr__pfet_01v8_hvt ad=0.11455 pd=1.08 as=0.2054 ps=2.1 w=0.79 l=0.15
X12 VGND.t328 VPWR.t832 VGND.t327 VGND.t326 sky130_fd_pr__nfet_01v8 ad=0.143 pd=1.62 as=0 ps=0 w=0.55 l=4.73
X13 VPWR.t684 VGND.t818 VPWR.t683 VPWR.t682 sky130_fd_pr__pfet_01v8_hvt ad=0.2262 pd=2.26 as=0 ps=0 w=0.87 l=1.05
X14 VGND.t477 clknet_0_clk.t32 a_5814_4399# VGND.t476 sky130_fd_pr__nfet_01v8 ad=0.0588 pd=0.7 as=0.0588 ps=0.7 w=0.42 l=0.15
X15 VGND.t331 VPWR.t833 VGND.t330 VGND.t329 sky130_fd_pr__nfet_01v8 ad=0.143 pd=1.62 as=0 ps=0 w=0.55 l=4.73
X16 a_2673_4233# a_1683_3861# a_2547_3855# VGND.t599 sky130_fd_pr__nfet_01v8 ad=0.066 pd=0.745 as=0.0684 ps=0.74 w=0.36 l=0.15
X17 VPWR.t749 net1 a_1499_7119# VPWR.t748 sky130_fd_pr__pfet_01v8_hvt ad=0.1475 pd=1.295 as=0.265 ps=2.53 w=1 l=0.15
X18 a_4454_4649# _17_ a_4382_4649# VPWR.t308 sky130_fd_pr__pfet_01v8_hvt ad=0.165 pd=1.33 as=0.105 ps=1.21 w=1 l=0.15
X19 a_3225_4399# a_2235_4399# a_3099_4765# VGND.t263 sky130_fd_pr__nfet_01v8 ad=0.066 pd=0.745 as=0.0684 ps=0.74 w=0.36 l=0.15
X20 _04_ a_3215_3829# VGND.t765 VGND.t764 sky130_fd_pr__nfet_01v8 ad=0.25025 pd=1.42 as=0.208 ps=1.94 w=0.65 l=0.15
X21 a_2471_2741# a_2614_2883# VPWR.t320 VPWR.t319 sky130_fd_pr__pfet_01v8_hvt ad=0.165 pd=1.33 as=0.3 ps=2.6 w=1 l=0.15
X22 net10 a_7683_3829# VPWR.t240 VPWR.t57 sky130_fd_pr__pfet_01v8_hvt ad=0.26 pd=2.52 as=0.135 ps=1.27 w=1 l=0.15
X23 VGND.t334 VPWR.t834 VGND.t333 VGND.t332 sky130_fd_pr__nfet_01v8 ad=0.143 pd=1.62 as=0 ps=0 w=0.55 l=4.73
X24 VPWR.t681 VGND.t819 VPWR.t680 VPWR.t679 sky130_fd_pr__pfet_01v8_hvt ad=0.2262 pd=2.26 as=0 ps=0 w=0.87 l=4.73
X25 VGND.t691 a_4329_5461# clknet_0_clk.t30 VGND.t690 sky130_fd_pr__nfet_01v8 ad=0.0588 pd=0.7 as=0.0588 ps=0.7 w=0.42 l=0.15
X26 VPWR.t342 _23_ a_7019_4943# VPWR.t341 sky130_fd_pr__pfet_01v8_hvt ad=0.0714 pd=0.76 as=0.1092 ps=1.36 w=0.42 l=0.15
X27 a_4413_3311# _15_ a_4341_3311# VGND.t613 sky130_fd_pr__nfet_01v8 ad=0.0441 pd=0.63 as=0.0441 ps=0.63 w=0.42 l=0.15
X28 a_5599_2741# net7 VPWR.t352 VPWR.t351 sky130_fd_pr__pfet_01v8_hvt ad=0.0735 pd=0.77 as=0.0777 ps=0.79 w=0.42 l=0.15
X29 VGND.t695 a_3849_2388# counter[3].t1 VGND.t694 sky130_fd_pr__nfet_01v8 ad=0.0754 pd=0.81 as=0.1352 ps=1.56 w=0.52 l=0.15
X30 VGND.t337 VPWR.t835 VGND.t336 VGND.t335 sky130_fd_pr__nfet_01v8 ad=0.143 pd=1.62 as=0 ps=0 w=0.55 l=4.73
X31 VPWR.t678 VGND.t820 VPWR.t677 VPWR.t676 sky130_fd_pr__pfet_01v8_hvt ad=0.2262 pd=2.26 as=0 ps=0 w=0.87 l=4.73
X32 clknet_1_0__leaf_clk.t31 a_1845_5461# VGND.t584 VGND.t583 sky130_fd_pr__nfet_01v8 ad=0.0588 pd=0.7 as=0.0588 ps=0.7 w=0.42 l=0.15
X33 a_2840_3087# net5 VGND.t548 VGND.t547 sky130_fd_pr__nfet_01v8 ad=0.17225 pd=1.83 as=0.08775 ps=0.92 w=0.65 l=0.15
X34 a_4349_3855# _15_ VPWR.t305 VPWR.t304 sky130_fd_pr__pfet_01v8_hvt ad=0.16 pd=1.32 as=0.1725 ps=1.345 w=1 l=0.15
X35 a_7199_4943# a_7019_4943# VPWR.t316 VPWR.t315 sky130_fd_pr__pfet_01v8_hvt ad=0.0609 pd=0.71 as=0.0714 ps=0.76 w=0.42 l=0.15
X36 a_6427_2741# _11_.t4 VPWR.t120 VPWR.t119 sky130_fd_pr__pfet_01v8_hvt ad=0.0735 pd=0.77 as=0.0777 ps=0.79 w=0.42 l=0.15
X37 VPWR.t307 _17_ a_3799_4943# VPWR.t306 sky130_fd_pr__pfet_01v8_hvt ad=0.0714 pd=0.76 as=0.1092 ps=1.36 w=0.42 l=0.15
X38 VPWR.t303 _15_ a_6427_2741# VPWR.t302 sky130_fd_pr__pfet_01v8_hvt ad=0.0777 pd=0.79 as=0.0588 ps=0.7 w=0.42 l=0.15
X39 VGND.t340 VPWR.t836 VGND.t339 VGND.t338 sky130_fd_pr__nfet_01v8 ad=0.143 pd=1.62 as=0 ps=0 w=0.55 l=2.89
X40 VPWR.t29 a_2745_2388# counter[2].t0 VPWR.t28 sky130_fd_pr__pfet_01v8_hvt ad=0.11455 pd=1.08 as=0.2054 ps=2.1 w=0.79 l=0.15
X41 VPWR.t384 a_4329_5461# clknet_0_clk.t14 VPWR.t383 sky130_fd_pr__pfet_01v8_hvt ad=0.14 pd=1.28 as=0.14 ps=1.28 w=1 l=0.15
X42 VPWR.t675 VGND.t821 VPWR.t674 VPWR.t673 sky130_fd_pr__pfet_01v8_hvt ad=0.2262 pd=2.26 as=0 ps=0 w=0.87 l=0.59
X43 VPWR.t94 clknet_1_1__leaf_clk.t32 a_6651_3861# VPWR.t93 sky130_fd_pr__pfet_01v8_hvt ad=0.0864 pd=0.91 as=0.1664 ps=1.8 w=0.64 l=0.15
X44 a_1845_5461# clknet_0_clk.t33 VPWR.t769 VPWR.t768 sky130_fd_pr__pfet_01v8_hvt ad=0.14 pd=1.28 as=0.14 ps=1.28 w=1 l=0.15
X45 VPWR.t672 VGND.t822 VPWR.t671 VPWR.t670 sky130_fd_pr__pfet_01v8_hvt ad=0.2262 pd=2.26 as=0 ps=0 w=0.87 l=4.73
X46 a_3979_4943# a_3799_4943# VPWR.t56 VPWR.t55 sky130_fd_pr__pfet_01v8_hvt ad=0.0609 pd=0.71 as=0.0714 ps=0.76 w=0.42 l=0.15
X47 VGND.t281 a_3267_4667# a_3225_4399# VGND.t280 sky130_fd_pr__nfet_01v8 ad=0.1092 pd=1.36 as=0.066 ps=0.745 w=0.42 l=0.15
X48 VPWR.t138 a_1457_2388# counter[0].t0 VPWR.t137 sky130_fd_pr__pfet_01v8_hvt ad=0.11455 pd=1.08 as=0.2054 ps=2.1 w=0.79 l=0.15
X49 VGND.t427 a_5675_3855# a_5843_3829# VGND.t426 sky130_fd_pr__nfet_01v8 ad=0.08775 pd=0.92 as=0.169 ps=1.82 w=0.65 l=0.15
X50 net11 a_7683_3579# VGND.t230 VGND.t229 sky130_fd_pr__nfet_01v8 ad=0.169 pd=1.82 as=0.08775 ps=0.92 w=0.65 l=0.15
X51 clknet_1_1__leaf_clk.t15 a_5814_4399# VPWR.t228 VPWR.t227 sky130_fd_pr__pfet_01v8_hvt ad=0.14 pd=1.28 as=0.14 ps=1.28 w=1 l=0.15
X52 a_2125_8527# net2.t2 VGND.t414 VGND.t413 sky130_fd_pr__nfet_01v8 ad=0.08775 pd=0.92 as=0.08775 ps=0.92 w=0.65 l=0.15
X53 VPWR.t723 a_2502_7637# a_2431_7663# VPWR.t722 sky130_fd_pr__pfet_01v8_hvt ad=0.178875 pd=1.26 as=0.1095 ps=1.075 w=0.75 l=0.15
X54 a_1825_2388# net3.t2 VPWR.t96 VPWR.t95 sky130_fd_pr__pfet_01v8_hvt ad=0.2054 pd=2.1 as=0.11455 ps=1.08 w=0.79 l=0.15
X55 a_7363_3087# _15_ a_7267_3087# VGND.t612 sky130_fd_pr__nfet_01v8 ad=0.104 pd=0.97 as=0.10725 ps=0.98 w=0.65 l=0.15
X56 VPWR.t719 a_7258_3829# a_7185_3855# VPWR.t711 sky130_fd_pr__pfet_01v8_hvt ad=0.178875 pd=1.26 as=0.07665 ps=0.785 w=0.42 l=0.15
X57 VGND.t723 _21_ a_4995_4399# VGND.t722 sky130_fd_pr__nfet_01v8 ad=0.0567 pd=0.69 as=0.1092 ps=1.36 w=0.42 l=0.15
X58 VPWR.t272 a_1845_5461# clknet_1_0__leaf_clk.t15 VPWR.t271 sky130_fd_pr__pfet_01v8_hvt ad=0.14 pd=1.28 as=0.14 ps=1.28 w=1 l=0.15
X59 a_7753_2767# _23_ VPWR.t340 VPWR.t339 sky130_fd_pr__pfet_01v8_hvt ad=0.135 pd=1.27 as=0.26 ps=2.52 w=1 l=0.15
X60 VPWR.t669 VGND.t823 VPWR.t668 VPWR.t577 sky130_fd_pr__pfet_01v8_hvt ad=0.2262 pd=2.26 as=0 ps=0 w=0.87 l=1.05
X61 a_6043_3677# a_5345_3311# a_5786_3423# VGND.t746 sky130_fd_pr__nfet_01v8 ad=0.0684 pd=0.74 as=0.0989 ps=0.995 w=0.36 l=0.15
X62 a_2823_3677# a_1959_3311# a_2566_3423# VPWR.t824 sky130_fd_pr__pfet_01v8_hvt ad=0.0567 pd=0.69 as=0.1095 ps=1.075 w=0.42 l=0.15
X63 clknet_1_1__leaf_clk.t30 a_5814_4399# VGND.t536 VGND.t535 sky130_fd_pr__nfet_01v8 ad=0.0588 pd=0.7 as=0.0588 ps=0.7 w=0.42 l=0.15
X64 VPWR.t667 VGND.t824 VPWR.t666 VPWR.t554 sky130_fd_pr__pfet_01v8_hvt ad=0.2262 pd=2.26 as=0 ps=0 w=0.87 l=0.59
X65 a_7185_3855# a_6651_3861# a_7090_3855# VPWR.t0 sky130_fd_pr__pfet_01v8_hvt ad=0.07665 pd=0.785 as=0.06825 ps=0.745 w=0.42 l=0.15
X66 a_4329_5461# clk.t0 VPWR.t751 VPWR.t750 sky130_fd_pr__pfet_01v8_hvt ad=0.14 pd=1.28 as=0.14 ps=1.28 w=1 l=0.15
X67 a_1915_7351# a_2011_7351# VPWR.t392 VPWR.t391 sky130_fd_pr__pfet_01v8_hvt ad=0.27 pd=2.54 as=0.135 ps=1.27 w=1 l=0.15
X68 VPWR.t665 VGND.t825 VPWR.t664 VPWR.t663 sky130_fd_pr__pfet_01v8_hvt ad=0.2262 pd=2.26 as=0 ps=0 w=0.87 l=4.73
X69 VGND.t362 _16_.t2 a_5436_4399# VGND.t361 sky130_fd_pr__nfet_01v8 ad=0.098625 pd=0.98 as=0.06615 ps=0.735 w=0.42 l=0.15
X70 VGND.t343 VPWR.t837 VGND.t342 VGND.t341 sky130_fd_pr__nfet_01v8 ad=0.143 pd=1.62 as=0 ps=0 w=0.55 l=0.59
X71 VGND.t689 a_4329_5461# clknet_0_clk.t29 VGND.t688 sky130_fd_pr__nfet_01v8 ad=0.05775 pd=0.695 as=0.0588 ps=0.7 w=0.42 l=0.15
X72 VGND.t31 _14_ _02_ VGND.t30 sky130_fd_pr__nfet_01v8 ad=0.169 pd=1.82 as=0.08775 ps=0.92 w=0.65 l=0.15
X73 a_2823_3677# a_2125_3311# a_2566_3423# VGND.t542 sky130_fd_pr__nfet_01v8 ad=0.0684 pd=0.74 as=0.0989 ps=0.995 w=0.36 l=0.15
X74 VPWR.t662 VGND.t826 VPWR.t661 VPWR.t502 sky130_fd_pr__pfet_01v8_hvt ad=0.2262 pd=2.26 as=0 ps=0 w=0.87 l=0.59
X75 VGND.t346 VPWR.t838 VGND.t345 VGND.t344 sky130_fd_pr__nfet_01v8 ad=0.143 pd=1.62 as=0 ps=0 w=0.55 l=4.73
X76 VGND.t297 a_6425_2388# counter[6].t1 VGND.t296 sky130_fd_pr__nfet_01v8 ad=0.0754 pd=0.81 as=0.1352 ps=1.56 w=0.52 l=0.15
X77 VGND.t349 VPWR.t839 VGND.t348 VGND.t347 sky130_fd_pr__nfet_01v8 ad=0.143 pd=1.62 as=0 ps=0 w=0.55 l=0.59
X78 VPWR.t791 a_2991_3579# a_2907_3677# VPWR.t790 sky130_fd_pr__pfet_01v8_hvt ad=0.1113 pd=1.37 as=0.0882 ps=0.84 w=0.42 l=0.15
X79 VGND.t239 _22_ a_7363_3087# VGND.t238 sky130_fd_pr__nfet_01v8 ad=0.112125 pd=0.995 as=0.104 ps=0.97 w=0.65 l=0.15
X80 VPWR.t132 clknet_1_0__leaf_clk.t32 a_1683_3861# VPWR.t131 sky130_fd_pr__pfet_01v8_hvt ad=0.0864 pd=0.91 as=0.1664 ps=1.8 w=0.64 l=0.15
X81 VPWR.t689 a_2502_7396# a_2431_7497# VPWR.t688 sky130_fd_pr__pfet_01v8_hvt ad=0.178875 pd=1.26 as=0.1095 ps=1.075 w=0.75 l=0.15
X82 VPWR.t382 a_4329_5461# clknet_0_clk.t13 VPWR.t381 sky130_fd_pr__pfet_01v8_hvt ad=0.14 pd=1.28 as=0.14 ps=1.28 w=1 l=0.15
X83 VGND.t352 VPWR.t840 VGND.t351 VGND.t350 sky130_fd_pr__nfet_01v8 ad=0.143 pd=1.62 as=0 ps=0 w=0.55 l=4.73
X84 VGND.t304 VPWR.t841 VGND.t303 VGND.t302 sky130_fd_pr__nfet_01v8 ad=0.143 pd=1.62 as=0 ps=0 w=0.55 l=0.59
X85 clknet_0_clk.t28 a_4329_5461# VGND.t687 VGND.t686 sky130_fd_pr__nfet_01v8 ad=0.0588 pd=0.7 as=0.0588 ps=0.7 w=0.42 l=0.15
X86 a_6375_5309# net6.t2 VPWR.t136 VPWR.t135 sky130_fd_pr__pfet_01v8_hvt ad=0.0735 pd=0.77 as=0.1092 ps=1.36 w=0.42 l=0.15
X87 VPWR.t660 VGND.t827 VPWR.t659 VPWR.t461 sky130_fd_pr__pfet_01v8_hvt ad=0.2262 pd=2.26 as=0 ps=0 w=0.87 l=0.59
X88 _24_ a_7077_2767# VGND.t789 VGND.t788 sky130_fd_pr__nfet_01v8 ad=0.17225 pd=1.83 as=0.112125 ps=0.995 w=0.65 l=0.15
X89 a_5801_4233# a_4811_3861# a_5675_3855# VGND.t643 sky130_fd_pr__nfet_01v8 ad=0.066 pd=0.745 as=0.0684 ps=0.74 w=0.36 l=0.15
X90 VGND.t582 a_1845_5461# clknet_1_0__leaf_clk.t30 VGND.t581 sky130_fd_pr__nfet_01v8 ad=0.0588 pd=0.7 as=0.0588 ps=0.7 w=0.42 l=0.15
X91 a_7171_2767# net10 a_7077_2767# VPWR.t277 sky130_fd_pr__pfet_01v8_hvt ad=0.165 pd=1.33 as=0.32 ps=2.64 w=1 l=0.15
X92 VPWR.t658 VGND.t828 VPWR.t657 VPWR.t656 sky130_fd_pr__pfet_01v8_hvt ad=0.2262 pd=2.26 as=0 ps=0 w=0.87 l=1.97
X93 _00_ a_1875_8207# a_2125_8207# VPWR.t343 sky130_fd_pr__pfet_01v8_hvt ad=0.3 pd=2.6 as=0.26 ps=2.52 w=1 l=0.15
X94 VPWR.t270 a_1845_5461# clknet_1_0__leaf_clk.t14 VPWR.t269 sky130_fd_pr__pfet_01v8_hvt ad=0.1375 pd=1.275 as=0.14 ps=1.28 w=1 l=0.15
X95 VPWR.t35 a_8265_2388# counter[8].t0 VPWR.t34 sky130_fd_pr__pfet_01v8_hvt ad=0.11455 pd=1.08 as=0.2054 ps=2.1 w=0.79 l=0.15
X96 VPWR.t655 VGND.t829 VPWR.t654 VPWR.t472 sky130_fd_pr__pfet_01v8_hvt ad=0.2262 pd=2.26 as=0 ps=0 w=0.87 l=0.59
X97 VPWR.t653 VGND.t830 VPWR.t652 VPWR.t651 sky130_fd_pr__pfet_01v8_hvt ad=0.2262 pd=2.26 as=0 ps=0 w=0.87 l=1.05
X98 a_7619_5162# _25_ VPWR.t805 VPWR.t804 sky130_fd_pr__pfet_01v8_hvt ad=0.2054 pd=2.1 as=0.11455 ps=1.08 w=0.79 l=0.15
X99 a_2217_3855# a_1683_3861# a_2122_3855# VPWR.t287 sky130_fd_pr__pfet_01v8_hvt ad=0.07665 pd=0.785 as=0.06825 ps=0.745 w=0.42 l=0.15
X100 VGND.t307 VPWR.t842 VGND.t306 VGND.t305 sky130_fd_pr__nfet_01v8 ad=0.143 pd=1.62 as=0 ps=0 w=0.55 l=1.05
X101 clknet_0_clk.t3 a_4329_5461# VPWR.t380 VPWR.t379 sky130_fd_pr__pfet_01v8_hvt ad=0.14 pd=1.28 as=0.14 ps=1.28 w=1 l=0.15
X102 a_5077_4721# _21_ VPWR.t718 VPWR.t717 sky130_fd_pr__pfet_01v8_hvt ad=0.0441 pd=0.63 as=0.1092 ps=1.36 w=0.42 l=0.15
X103 VPWR.t80 net6.t3 a_5599_2741# VPWR.t79 sky130_fd_pr__pfet_01v8_hvt ad=0.1092 pd=1.36 as=0.0735 ps=0.77 w=0.42 l=0.15
X104 VGND.t52 a_2745_2388# counter[2].t1 VGND.t51 sky130_fd_pr__nfet_01v8 ad=0.0754 pd=0.81 as=0.1352 ps=1.56 w=0.52 l=0.15
X105 VGND.t310 VPWR.t843 VGND.t309 VGND.t308 sky130_fd_pr__nfet_01v8 ad=0.143 pd=1.62 as=0 ps=0 w=0.55 l=1.97
X106 a_2125_3311# a_1959_3311# VGND.t814 VGND.t813 sky130_fd_pr__nfet_01v8 ad=0.1092 pd=1.36 as=0.0567 ps=0.69 w=0.42 l=0.15
X107 a_7515_3677# a_6651_3311# a_7258_3423# VPWR.t3 sky130_fd_pr__pfet_01v8_hvt ad=0.0567 pd=0.69 as=0.1095 ps=1.075 w=0.42 l=0.15
X108 a_7345_2388# net9 VPWR.t728 VPWR.t727 sky130_fd_pr__pfet_01v8_hvt ad=0.2054 pd=2.1 as=0.11455 ps=1.08 w=0.79 l=0.15
X109 a_4779_5161# clknet_1_1__leaf_clk.t33 VGND.t275 VGND.t274 sky130_fd_pr__nfet_01v8 ad=0.1092 pd=1.36 as=0.0567 ps=0.69 w=0.42 l=0.15
X110 VPWR.t650 VGND.t831 VPWR.t649 VPWR.t648 sky130_fd_pr__pfet_01v8_hvt ad=0.2262 pd=2.26 as=0 ps=0 w=0.87 l=1.05
X111 VPWR.t647 VGND.t832 VPWR.t646 VPWR.t645 sky130_fd_pr__pfet_01v8_hvt ad=0.2262 pd=2.26 as=0 ps=0 w=0.87 l=2.89
X112 VGND.t410 a_1457_2388# counter[0].t1 VGND.t409 sky130_fd_pr__nfet_01v8 ad=0.0754 pd=0.81 as=0.1352 ps=1.56 w=0.52 l=0.15
X113 clknet_1_0__leaf_clk.t13 a_1845_5461# VPWR.t268 VPWR.t267 sky130_fd_pr__pfet_01v8_hvt ad=0.14 pd=1.28 as=0.14 ps=1.28 w=1 l=0.15
X114 a_1825_2388# net3.t3 VGND.t506 VGND.t505 sky130_fd_pr__nfet_01v8 ad=0.1352 pd=1.56 as=0.0754 ps=0.81 w=0.52 l=0.15
X115 a_7005_3855# _08_ VGND.t418 VGND.t417 sky130_fd_pr__nfet_01v8 ad=0.0813 pd=0.83 as=0.1092 ps=1.36 w=0.42 l=0.15
X116 VPWR.t644 VGND.t833 VPWR.t643 VPWR.t642 sky130_fd_pr__pfet_01v8_hvt ad=0.2262 pd=2.26 as=0 ps=0 w=0.87 l=4.73
X117 a_2295_7337# clknet_1_0__leaf_clk.t33 VPWR.t176 VPWR.t175 sky130_fd_pr__pfet_01v8_hvt ad=0.1664 pd=1.8 as=0.0864 ps=0.91 w=0.64 l=0.15
X118 VGND.t312 VPWR.t844 VGND.t311 VGND.t94 sky130_fd_pr__nfet_01v8 ad=0.143 pd=1.62 as=0 ps=0 w=0.55 l=0.59
X119 VGND.t314 VPWR.t845 VGND.t313 VGND.t302 sky130_fd_pr__nfet_01v8 ad=0.143 pd=1.62 as=0 ps=0 w=0.55 l=0.59
X120 VPWR.t106 net11 a_7939_2223# VPWR.t105 sky130_fd_pr__pfet_01v8_hvt ad=0.11455 pd=1.08 as=0.2054 ps=2.1 w=0.79 l=0.15
X121 a_7515_3677# a_6817_3311# a_7258_3423# VGND.t416 sky130_fd_pr__nfet_01v8 ad=0.0684 pd=0.74 as=0.0989 ps=0.995 w=0.36 l=0.15
X122 VPWR.t301 _15_ a_3831_3339# VPWR.t300 sky130_fd_pr__pfet_01v8_hvt ad=0.16655 pd=1.39 as=0.0567 ps=0.69 w=0.42 l=0.15
X123 _12_ net3.t4 a_1499_7119# VPWR.t194 sky130_fd_pr__pfet_01v8_hvt ad=0.265 pd=2.53 as=0.14 ps=1.28 w=1 l=0.15
X124 VPWR.t641 VGND.t834 VPWR.t640 VPWR.t639 sky130_fd_pr__pfet_01v8_hvt ad=0.2262 pd=2.26 as=0 ps=0 w=0.87 l=4.73
X125 VGND.t534 a_5814_4399# clknet_1_1__leaf_clk.t29 VGND.t533 sky130_fd_pr__nfet_01v8 ad=0.0588 pd=0.7 as=0.0588 ps=0.7 w=0.42 l=0.15
X126 VPWR.t110 a_1915_7351# net3.t0 VPWR.t109 sky130_fd_pr__pfet_01v8_hvt ad=0.135 pd=1.27 as=0.26 ps=2.52 w=1 l=0.15
X127 net4 a_2715_3829# VPWR.t13 VPWR.t12 sky130_fd_pr__pfet_01v8_hvt ad=0.26 pd=2.52 as=0.135 ps=1.27 w=1 l=0.15
X128 VPWR.t700 a_4585_2388# counter[4].t0 VPWR.t699 sky130_fd_pr__pfet_01v8_hvt ad=0.11455 pd=1.08 as=0.2054 ps=2.1 w=0.79 l=0.15
X129 VPWR.t60 a_7683_3579# a_7599_3677# VPWR.t59 sky130_fd_pr__pfet_01v8_hvt ad=0.1113 pd=1.37 as=0.0882 ps=0.84 w=0.42 l=0.15
X130 a_4737_4943# a_4399_5175# VPWR.t116 VPWR.t115 sky130_fd_pr__pfet_01v8_hvt ad=0.0882 pd=0.84 as=0.1113 ps=1.37 w=0.42 l=0.15
X131 a_7258_3423# a_7090_3677# VPWR.t752 VPWR.t53 sky130_fd_pr__pfet_01v8_hvt ad=0.1095 pd=1.075 as=0.178875 ps=1.26 w=0.75 l=0.15
X132 net10 a_7683_3829# VGND.t552 VGND.t551 sky130_fd_pr__nfet_01v8 ad=0.169 pd=1.82 as=0.08775 ps=0.92 w=0.65 l=0.15
X133 a_3917_3105# net4 a_3831_3105# VGND.t486 sky130_fd_pr__nfet_01v8 ad=0.0567 pd=0.69 as=0.1176 ps=1.4 w=0.42 l=0.15
X134 VGND.t316 VPWR.t846 VGND.t315 VGND.t153 sky130_fd_pr__nfet_01v8 ad=0.143 pd=1.62 as=0 ps=0 w=0.55 l=0.59
X135 VGND.t705 _20_ a_4413_3311# VGND.t704 sky130_fd_pr__nfet_01v8 ad=0.13165 pd=1.14 as=0.0441 ps=0.63 w=0.42 l=0.15
X136 VPWR.t638 VGND.t835 VPWR.t637 VPWR.t510 sky130_fd_pr__pfet_01v8_hvt ad=0.2262 pd=2.26 as=0 ps=0 w=0.87 l=4.73
X137 a_7005_3311# _09_ VGND.t729 VGND.t728 sky130_fd_pr__nfet_01v8 ad=0.0813 pd=0.83 as=0.1092 ps=1.36 w=0.42 l=0.15
X138 VGND.t56 _24_ a_7289_5309# VGND.t55 sky130_fd_pr__nfet_01v8 ad=0.1013 pd=0.99 as=0.0504 ps=0.66 w=0.42 l=0.15
X139 VPWR.t716 _21_ a_4520_4373# VPWR.t715 sky130_fd_pr__pfet_01v8_hvt ad=0.18575 pd=1.415 as=0.1176 ps=1.4 w=0.42 l=0.15
X140 VPWR.t314 a_2561_9514# net1 VPWR.t313 sky130_fd_pr__pfet_01v8_hvt ad=0.11455 pd=1.08 as=0.2054 ps=2.1 w=0.79 l=0.15
X141 clknet_0_clk.t2 a_4329_5461# VPWR.t378 VPWR.t377 sky130_fd_pr__pfet_01v8_hvt ad=0.14 pd=1.28 as=0.14 ps=1.28 w=1 l=0.15
X142 a_4915_5321# a_4779_5161# a_4495_5175# VPWR.t739 sky130_fd_pr__pfet_01v8_hvt ad=0.1095 pd=1.075 as=0.0567 ps=0.69 w=0.42 l=0.15
X143 a_5345_3311# a_5179_3311# VPWR.t46 VPWR.t45 sky130_fd_pr__pfet_01v8_hvt ad=0.1664 pd=1.8 as=0.0864 ps=0.91 w=0.64 l=0.15
X144 VGND.t319 VPWR.t847 VGND.t318 VGND.t317 sky130_fd_pr__nfet_01v8 ad=0.143 pd=1.62 as=0 ps=0 w=0.55 l=4.73
X145 VGND.t322 VPWR.t848 VGND.t321 VGND.t320 sky130_fd_pr__nfet_01v8 ad=0.143 pd=1.62 as=0 ps=0 w=0.55 l=4.73
X146 VGND.t277 clknet_1_1__leaf_clk.t34 a_5179_3311# VGND.t276 sky130_fd_pr__nfet_01v8 ad=0.0567 pd=0.69 as=0.1092 ps=1.36 w=0.42 l=0.15
X147 VGND.t727 a_6427_2741# _23_ VGND.t726 sky130_fd_pr__nfet_01v8 ad=0.196275 pd=1.33 as=0.169 ps=1.82 w=0.65 l=0.15
X148 VGND.t29 _14_ a_2840_3087# VGND.t28 sky130_fd_pr__nfet_01v8 ad=0.08775 pd=0.92 as=0.10725 ps=0.98 w=0.65 l=0.15
X149 a_5250_3855# a_4977_3861# a_5165_3855# VPWR.t324 sky130_fd_pr__pfet_01v8_hvt ad=0.06825 pd=0.745 as=0.05775 ps=0.695 w=0.42 l=0.15
X150 a_7619_5162# _25_ VGND.t796 VGND.t795 sky130_fd_pr__nfet_01v8 ad=0.1352 pd=1.56 as=0.0754 ps=0.81 w=0.52 l=0.15
X151 a_1915_7351# a_2011_7351# VGND.t696 VGND.t499 sky130_fd_pr__nfet_01v8 ad=0.169 pd=1.82 as=0.08775 ps=0.92 w=0.65 l=0.15
X152 a_4399_5175# a_4495_5175# VPWR.t31 VPWR.t30 sky130_fd_pr__pfet_01v8_hvt ad=0.27 pd=2.54 as=0.135 ps=1.27 w=1 l=0.15
X153 VPWR.t86 clknet_1_1__leaf_clk.t35 a_4811_3861# VPWR.t85 sky130_fd_pr__pfet_01v8_hvt ad=0.0864 pd=0.91 as=0.1664 ps=1.8 w=0.64 l=0.15
X154 VGND.t58 a_8265_2388# counter[8].t1 VGND.t57 sky130_fd_pr__nfet_01v8 ad=0.0754 pd=0.81 as=0.1352 ps=1.56 w=0.52 l=0.15
X155 VGND.t325 VPWR.t849 VGND.t324 VGND.t323 sky130_fd_pr__nfet_01v8 ad=0.143 pd=1.62 as=0 ps=0 w=0.55 l=4.73
X156 VPWR.t636 VGND.t836 VPWR.t635 VPWR.t634 sky130_fd_pr__pfet_01v8_hvt ad=0.2262 pd=2.26 as=0 ps=0 w=0.87 l=4.73
X157 VPWR.t376 a_4329_5461# clknet_0_clk.t1 VPWR.t375 sky130_fd_pr__pfet_01v8_hvt ad=0.14 pd=1.28 as=0.14 ps=1.28 w=1 l=0.15
X158 VPWR.t633 VGND.t837 VPWR.t632 VPWR.t534 sky130_fd_pr__pfet_01v8_hvt ad=0.2262 pd=2.26 as=0 ps=0 w=0.87 l=0.59
X159 VGND.t532 a_5814_4399# clknet_1_1__leaf_clk.t28 VGND.t531 sky130_fd_pr__nfet_01v8 ad=0.0588 pd=0.7 as=0.0588 ps=0.7 w=0.42 l=0.15
X160 a_7345_2388# net9 VGND.t738 VGND.t737 sky130_fd_pr__nfet_01v8 ad=0.1352 pd=1.56 as=0.0754 ps=0.81 w=0.52 l=0.15
X161 VPWR.t178 clknet_1_0__leaf_clk.t34 a_1959_3311# VPWR.t177 sky130_fd_pr__pfet_01v8_hvt ad=0.0864 pd=0.91 as=0.1664 ps=1.8 w=0.64 l=0.15
X162 VGND.t63 VPWR.t850 VGND.t62 VGND.t61 sky130_fd_pr__nfet_01v8 ad=0.143 pd=1.62 as=0 ps=0 w=0.55 l=2.89
X163 VGND.t580 a_1845_5461# clknet_1_0__leaf_clk.t29 VGND.t579 sky130_fd_pr__nfet_01v8 ad=0.0588 pd=0.7 as=0.0588 ps=0.7 w=0.42 l=0.15
X164 VGND.t810 net8 a_4287_4399# VGND.t809 sky130_fd_pr__nfet_01v8 ad=0.08775 pd=0.92 as=0.17225 ps=1.83 w=0.65 l=0.15
X165 a_5599_2741# net9 VPWR.t726 VPWR.t725 sky130_fd_pr__pfet_01v8_hvt ad=0.0588 pd=0.7 as=0.31245 ps=1.68 w=0.42 l=0.15
X166 VPWR.t266 a_1845_5461# clknet_1_0__leaf_clk.t12 VPWR.t265 sky130_fd_pr__pfet_01v8_hvt ad=0.14 pd=1.28 as=0.14 ps=1.28 w=1 l=0.15
X167 a_2317_6575# net2.t3 a_2235_6575# VGND.t430 sky130_fd_pr__nfet_01v8 ad=0.0441 pd=0.63 as=0.1092 ps=1.36 w=0.42 l=0.15
X168 VPWR.t631 VGND.t838 VPWR.t630 VPWR.t528 sky130_fd_pr__pfet_01v8_hvt ad=0.2262 pd=2.26 as=0 ps=0 w=0.87 l=0.59
X169 VGND.t287 net11 a_7939_2223# VGND.t286 sky130_fd_pr__nfet_01v8 ad=0.0754 pd=0.81 as=0.1352 ps=1.56 w=0.52 l=0.15
X170 a_3215_3829# _16_.t3 a_3601_3855# VPWR.t36 sky130_fd_pr__pfet_01v8_hvt ad=0.26 pd=2.52 as=0.135 ps=1.27 w=1 l=0.15
X171 a_6427_2741# _22_ VPWR.t70 VPWR.t69 sky130_fd_pr__pfet_01v8_hvt ad=0.0588 pd=0.7 as=0.31245 ps=1.68 w=0.42 l=0.15
X172 VGND.t639 _05_ a_5333_5321# VGND.t638 sky130_fd_pr__nfet_01v8 ad=0.1092 pd=1.36 as=0.0813 ps=0.83 w=0.42 l=0.15
X173 _25_ a_7199_4943# VPWR.t698 VPWR.t697 sky130_fd_pr__pfet_01v8_hvt ad=0.26 pd=2.52 as=0.2279 ps=1.74 w=1 l=0.15
X174 a_5786_3423# a_5618_3677# VPWR.t40 VPWR.t39 sky130_fd_pr__pfet_01v8_hvt ad=0.1095 pd=1.075 as=0.178875 ps=1.26 w=0.75 l=0.15
X175 a_5786_3423# a_5618_3677# VGND.t208 VGND.t207 sky130_fd_pr__nfet_01v8 ad=0.0989 pd=0.995 as=0.12095 ps=1.085 w=0.64 l=0.15
X176 _16_.t0 a_3831_3339# VPWR.t5 VPWR.t4 sky130_fd_pr__pfet_01v8_hvt ad=0.475 pd=2.95 as=0.16655 ps=1.39 w=1 l=0.15
X177 a_4329_5461# clk.t1 VPWR.t322 VPWR.t321 sky130_fd_pr__pfet_01v8_hvt ad=0.14 pd=1.28 as=0.14 ps=1.28 w=1 l=0.15
X178 VGND.t270 clknet_1_1__leaf_clk.t36 a_6651_3861# VGND.t269 sky130_fd_pr__nfet_01v8 ad=0.0567 pd=0.69 as=0.1092 ps=1.36 w=0.42 l=0.15
X179 clknet_1_1__leaf_clk.t27 a_5814_4399# VGND.t530 VGND.t529 sky130_fd_pr__nfet_01v8 ad=0.0588 pd=0.7 as=0.0588 ps=0.7 w=0.42 l=0.15
X180 VPWR.t629 VGND.t839 VPWR.t628 VPWR.t627 sky130_fd_pr__pfet_01v8_hvt ad=0.2262 pd=2.26 as=0 ps=0 w=0.87 l=4.73
X181 VPWR.t626 VGND.t840 VPWR.t625 VPWR.t490 sky130_fd_pr__pfet_01v8_hvt ad=0.2262 pd=2.26 as=0 ps=0 w=0.87 l=0.59
X182 _19_ a_3979_4943# VGND.t787 VGND.t786 sky130_fd_pr__nfet_01v8 ad=0.169 pd=1.82 as=0.1013 ps=0.99 w=0.65 l=0.15
X183 _06_ a_4454_4649# VGND.t603 VGND.t602 sky130_fd_pr__nfet_01v8 ad=0.169 pd=1.82 as=0.10025 ps=0.985 w=0.65 l=0.15
X184 VGND.t709 a_4585_2388# counter[4].t1 VGND.t708 sky130_fd_pr__nfet_01v8 ad=0.0754 pd=0.81 as=0.1352 ps=1.56 w=0.52 l=0.15
X185 VPWR.t696 _20_ a_4259_3311# VPWR.t695 sky130_fd_pr__pfet_01v8_hvt ad=0.142225 pd=1.335 as=0.06615 ps=0.735 w=0.42 l=0.15
X186 VPWR.t624 VGND.t841 VPWR.t623 VPWR.t413 sky130_fd_pr__pfet_01v8_hvt ad=0.2262 pd=2.26 as=0 ps=0 w=0.87 l=0.59
X187 VPWR.t622 VGND.t842 VPWR.t621 VPWR.t620 sky130_fd_pr__pfet_01v8_hvt ad=0.2262 pd=2.26 as=0 ps=0 w=0.87 l=2.89
X188 VPWR.t619 VGND.t843 VPWR.t618 VPWR.t617 sky130_fd_pr__pfet_01v8_hvt ad=0.2262 pd=2.26 as=0 ps=0 w=0.87 l=4.73
X189 VGND.t780 a_2295_7637# a_2302_7937# VGND.t231 sky130_fd_pr__nfet_01v8 ad=0.0567 pd=0.69 as=0.1092 ps=1.36 w=0.42 l=0.15
X190 a_2041_4649# _11_.t5 _13_ VPWR.t121 sky130_fd_pr__pfet_01v8_hvt ad=0.105 pd=1.21 as=0.26 ps=2.52 w=1 l=0.15
X191 VPWR.t812 a_5871_5162# _05_ VPWR.t811 sky130_fd_pr__pfet_01v8_hvt ad=0.11455 pd=1.08 as=0.2054 ps=2.1 w=0.79 l=0.15
X192 a_2547_3855# a_1683_3861# a_2290_3829# VPWR.t286 sky130_fd_pr__pfet_01v8_hvt ad=0.0567 pd=0.69 as=0.1095 ps=1.075 w=0.42 l=0.15
X193 a_7019_4943# _23_ VGND.t650 VGND.t649 sky130_fd_pr__nfet_01v8 ad=0.1092 pd=1.36 as=0.1092 ps=1.36 w=0.42 l=0.15
X194 a_2401_4399# a_2235_4399# VGND.t262 VGND.t261 sky130_fd_pr__nfet_01v8 ad=0.1092 pd=1.36 as=0.0567 ps=0.69 w=0.42 l=0.15
X195 VGND.t792 a_2290_3829# a_2248_4233# VGND.t791 sky130_fd_pr__nfet_01v8 ad=0.12095 pd=1.085 as=0.0696 ps=0.765 w=0.42 l=0.15
X196 VGND.t66 VPWR.t851 VGND.t65 VGND.t64 sky130_fd_pr__nfet_01v8 ad=0.143 pd=1.62 as=0 ps=0 w=0.55 l=4.73
X197 _21_ a_4259_3311# VPWR.t42 VPWR.t41 sky130_fd_pr__pfet_01v8_hvt ad=0.26 pd=2.52 as=0.142225 ps=1.335 w=1 l=0.15
X198 VGND.t731 clknet_0_clk.t34 a_5814_4399# VGND.t730 sky130_fd_pr__nfet_01v8 ad=0.0588 pd=0.7 as=0.0588 ps=0.7 w=0.42 l=0.15
X199 VGND.t43 clknet_0_clk.t35 a_1845_5461# VGND.t42 sky130_fd_pr__nfet_01v8 ad=0.0588 pd=0.7 as=0.0588 ps=0.7 w=0.42 l=0.15
X200 net8 a_5843_3829# VPWR.t50 VPWR.t49 sky130_fd_pr__pfet_01v8_hvt ad=0.26 pd=2.52 as=0.135 ps=1.27 w=1 l=0.15
X201 a_5135_5309# a_4915_5321# VGND.t601 VGND.t600 sky130_fd_pr__nfet_01v8 ad=0.0696 pd=0.765 as=0.12095 ps=1.085 w=0.42 l=0.15
X202 a_3831_3105# net4 VPWR.t710 VPWR.t709 sky130_fd_pr__pfet_01v8_hvt ad=0.0567 pd=0.69 as=0.1176 ps=1.4 w=0.42 l=0.15
X203 VPWR.t616 VGND.t844 VPWR.t615 VPWR.t446 sky130_fd_pr__pfet_01v8_hvt ad=0.2262 pd=2.26 as=0 ps=0 w=0.87 l=4.73
X204 a_3849_2388# net5 VPWR.t238 VPWR.t237 sky130_fd_pr__pfet_01v8_hvt ad=0.2054 pd=2.1 as=0.11455 ps=1.08 w=0.79 l=0.15
X205 VPWR.t614 VGND.t845 VPWR.t613 VPWR.t612 sky130_fd_pr__pfet_01v8_hvt ad=0.2262 pd=2.26 as=0 ps=0 w=0.87 l=1.97
X206 VGND.t622 a_2561_9514# net1 VGND.t621 sky130_fd_pr__nfet_01v8 ad=0.0754 pd=0.81 as=0.1352 ps=1.56 w=0.52 l=0.15
X207 a_3799_4943# _17_ VGND.t617 VGND.t616 sky130_fd_pr__nfet_01v8 ad=0.1092 pd=1.36 as=0.1092 ps=1.36 w=0.42 l=0.15
X208 a_6719_3133# _15_ a_6623_3133# VGND.t611 sky130_fd_pr__nfet_01v8 ad=0.0798 pd=0.8 as=0.0693 ps=0.75 w=0.42 l=0.15
X209 a_2253_8029# a_1915_7815# VPWR.t21 VPWR.t20 sky130_fd_pr__pfet_01v8_hvt ad=0.0882 pd=0.84 as=0.1113 ps=1.37 w=0.42 l=0.15
X210 VGND.t289 a_1915_7351# net3.t1 VGND.t38 sky130_fd_pr__nfet_01v8 ad=0.08775 pd=0.92 as=0.169 ps=1.82 w=0.65 l=0.15
X211 a_5149_4721# net9 a_5077_4721# VPWR.t724 sky130_fd_pr__pfet_01v8_hvt ad=0.0672 pd=0.74 as=0.0441 ps=0.63 w=0.42 l=0.15
X212 clknet_0_clk.t0 a_4329_5461# VPWR.t374 VPWR.t373 sky130_fd_pr__pfet_01v8_hvt ad=0.14 pd=1.28 as=0.265 ps=2.53 w=1 l=0.15
X213 VGND.t299 clknet_1_1__leaf_clk.t37 a_6651_3311# VGND.t298 sky130_fd_pr__nfet_01v8 ad=0.0567 pd=0.69 as=0.1092 ps=1.36 w=0.42 l=0.15
X214 VPWR.t11 a_2715_3829# a_2631_3855# VPWR.t10 sky130_fd_pr__pfet_01v8_hvt ad=0.1113 pd=1.37 as=0.0882 ps=0.84 w=0.42 l=0.15
X215 VGND.t69 VPWR.t852 VGND.t68 VGND.t67 sky130_fd_pr__nfet_01v8 ad=0.143 pd=1.62 as=0 ps=0 w=0.55 l=0.59
X216 clknet_1_0__leaf_clk.t28 a_1845_5461# VGND.t578 VGND.t577 sky130_fd_pr__nfet_01v8 ad=0.0588 pd=0.7 as=0.0588 ps=0.7 w=0.42 l=0.15
X217 a_2037_3855# _02_ VGND.t740 VGND.t739 sky130_fd_pr__nfet_01v8 ad=0.0813 pd=0.83 as=0.1092 ps=1.36 w=0.42 l=0.15
X218 VGND.t72 VPWR.t853 VGND.t71 VGND.t70 sky130_fd_pr__nfet_01v8 ad=0.143 pd=1.62 as=0 ps=0 w=0.55 l=0.59
X219 VPWR.t264 a_1845_5461# clknet_1_0__leaf_clk.t11 VPWR.t263 sky130_fd_pr__pfet_01v8_hvt ad=0.14 pd=1.28 as=0.14 ps=1.28 w=1 l=0.15
X220 a_5505_2388# net7 VPWR.t350 VPWR.t349 sky130_fd_pr__pfet_01v8_hvt ad=0.2054 pd=2.1 as=0.11455 ps=1.08 w=0.79 l=0.15
X221 VPWR.t226 a_5814_4399# clknet_1_1__leaf_clk.t14 VPWR.t225 sky130_fd_pr__pfet_01v8_hvt ad=0.265 pd=2.53 as=0.14 ps=1.28 w=1 l=0.15
X222 VPWR.t611 VGND.t846 VPWR.t610 VPWR.t481 sky130_fd_pr__pfet_01v8_hvt ad=0.2262 pd=2.26 as=0 ps=0 w=0.87 l=4.73
X223 clknet_1_0__leaf_clk.t27 a_1845_5461# VGND.t576 VGND.t575 sky130_fd_pr__nfet_01v8 ad=0.0588 pd=0.7 as=0.1113 ps=1.37 w=0.42 l=0.15
X224 VGND.t659 net7 a_4220_3829# VGND.t658 sky130_fd_pr__nfet_01v8 ad=0.208 pd=1.94 as=0.10725 ps=0.98 w=0.65 l=0.15
X225 VGND.t540 clknet_1_0__leaf_clk.t35 a_1683_3861# VGND.t539 sky130_fd_pr__nfet_01v8 ad=0.0567 pd=0.69 as=0.1092 ps=1.36 w=0.42 l=0.15
X226 clknet_0_clk.t8 a_4329_5461# VPWR.t372 VPWR.t371 sky130_fd_pr__pfet_01v8_hvt ad=0.14 pd=1.28 as=0.14 ps=1.28 w=1 l=0.15
X227 a_2614_2883# _16_.t4 VGND.t60 VGND.t59 sky130_fd_pr__nfet_01v8 ad=0.1092 pd=1.36 as=0.10025 ps=0.985 w=0.42 l=0.15
X228 net11 a_7683_3579# VPWR.t58 VPWR.t57 sky130_fd_pr__pfet_01v8_hvt ad=0.26 pd=2.52 as=0.135 ps=1.27 w=1 l=0.15
X229 VPWR.t166 a_4220_3829# _18_ VPWR.t165 sky130_fd_pr__pfet_01v8_hvt ad=0.1725 pd=1.345 as=0.265 ps=2.53 w=1 l=0.15
X230 VPWR.t609 VGND.t847 VPWR.t608 VPWR.t607 sky130_fd_pr__pfet_01v8_hvt ad=0.2262 pd=2.26 as=0 ps=0 w=0.87 l=4.73
X231 VGND.t37 a_2842_4511# a_2800_4399# VGND.t36 sky130_fd_pr__nfet_01v8 ad=0.12095 pd=1.085 as=0.0696 ps=0.765 w=0.42 l=0.15
X232 clknet_1_1__leaf_clk.t26 a_5814_4399# VGND.t528 VGND.t527 sky130_fd_pr__nfet_01v8 ad=0.0588 pd=0.7 as=0.0588 ps=0.7 w=0.42 l=0.15
X233 VGND.t75 VPWR.t854 VGND.t74 VGND.t73 sky130_fd_pr__nfet_01v8 ad=0.143 pd=1.62 as=0 ps=0 w=0.55 l=4.73
X234 a_7267_3087# _11_.t6 a_7077_2767# VGND.t421 sky130_fd_pr__nfet_01v8 ad=0.10725 pd=0.98 as=0.10725 ps=0.98 w=0.65 l=0.15
X235 a_2431_7663# a_2295_7637# a_2011_7637# VPWR.t785 sky130_fd_pr__pfet_01v8_hvt ad=0.1095 pd=1.075 as=0.0567 ps=0.69 w=0.42 l=0.15
X236 a_6169_3311# a_5179_3311# a_6043_3677# VGND.t214 sky130_fd_pr__nfet_01v8 ad=0.066 pd=0.745 as=0.0684 ps=0.74 w=0.36 l=0.15
X237 a_1505_3855# _13_ VPWR.t123 VPWR.t122 sky130_fd_pr__pfet_01v8_hvt ad=0.105 pd=1.21 as=0.26 ps=2.52 w=1 l=0.15
X238 VGND.t78 VPWR.t855 VGND.t77 VGND.t76 sky130_fd_pr__nfet_01v8 ad=0.143 pd=1.62 as=0 ps=0 w=0.55 l=0.59
X239 VGND.t81 VPWR.t856 VGND.t80 VGND.t79 sky130_fd_pr__nfet_01v8 ad=0.143 pd=1.62 as=0 ps=0 w=0.55 l=4.73
X240 VPWR.t606 VGND.t848 VPWR.t605 VPWR.t604 sky130_fd_pr__pfet_01v8_hvt ad=0.2262 pd=2.26 as=0 ps=0 w=0.87 l=4.73
X241 VPWR.t820 net8 a_5599_2741# VPWR.t819 sky130_fd_pr__pfet_01v8_hvt ad=0.0777 pd=0.79 as=0.0588 ps=0.7 w=0.42 l=0.15