* NGSPICE file created from tt_um_patdeegan_anamux_parax.ext - technology: sky130A

.subckt tt_um_patdeegan_anamux_parax clk ena rst_n ua[4] ua[5] ua[6] ua[7] ui_in[7]
+ uio_in[0] uio_in[1] uio_in[2] uio_in[3] uio_in[4] uio_in[5] uio_in[6] uio_in[7]
+ uio_oe[0] uio_oe[1] uio_oe[2] uio_oe[3] uio_oe[4] uio_oe[5] uio_oe[6] uio_oe[7]
+ uio_out[0] uio_out[1] uio_out[2] uio_out[3] uio_out[4] uio_out[5] uio_out[6] uio_out[7]
+ uo_out[0] uo_out[1] uo_out[2] uo_out[3] uo_out[4] uo_out[5] uo_out[6] uo_out[7]
+ ui_in[5] ua[0] ua[3] ui_in[1] ua[1] ui_in[4] ui_in[2] ui_in[6] ui_in[0] ua[2] ui_in[3]
+ VSS VDPWR
X0 a_21007_3867# ringtest_0.x4.net2.t2 VSS.t926 VSS.t925 sky130_fd_pr__nfet_01v8 ad=0.1352 pd=1.56 as=0.0754 ps=0.81 w=0.52 l=0.15
X1 VSS.t899 VDPWR.t1166 VSS.t898 VSS.t897 sky130_fd_pr__nfet_01v8 ad=0.143 pd=1.62 as=0 ps=0 w=0.55 l=1.05
X2 VSS.t901 VDPWR.t1167 VSS.t900 VSS.t671 sky130_fd_pr__nfet_01v8 ad=0.143 pd=1.62 as=0 ps=0 w=0.55 l=0.59
X3 a_24527_5340# a_24361_5340# VSS.t165 VSS.t164 sky130_fd_pr__nfet_01v8 ad=0.1092 pd=1.36 as=0.0567 ps=0.69 w=0.42 l=0.15
X4 ua[2].t3 muxtest_0.x2.x2.GP1.t4 ua[3].t4 VDPWR.t314 sky130_fd_pr__pfet_01v8_lvt ad=2.9 pd=20.58 as=2.9 ps=20.58 w=10 l=0.35
X5 ringtest_0.x4.clknet_0_clk.t15 a_23879_6940# VSS.t642 VSS.t641 sky130_fd_pr__nfet_01v8 ad=0.0588 pd=0.7 as=0.0588 ps=0.7 w=0.42 l=0.15
X6 a_24135_3867# ringtest_0.x4.net6.t2 VDPWR.t160 VDPWR.t159 sky130_fd_pr__pfet_01v8_hvt ad=0.2054 pd=2.1 as=0.11455 ps=1.08 w=0.79 l=0.15
X7 VSS.t1093 a_25364_5878# ringtest_0.x4.clknet_1_1__leaf_clk.t15 VSS.t1092 sky130_fd_pr__nfet_01v8 ad=0.0588 pd=0.7 as=0.0588 ps=0.7 w=0.42 l=0.15
X8 VDPWR.t1046 ui_in[1].t0 muxtest_0.x1.x1.nSEL1 VDPWR.t1045 sky130_fd_pr__pfet_01v8_hvt ad=0.26 pd=2.52 as=0.135 ps=1.27 w=1 l=0.15
X9 a_22399_8976# a_21852_8720# a_22052_8875# VDPWR.t133 sky130_fd_pr__pfet_01v8_hvt ad=0.05775 pd=0.695 as=0.06825 ps=0.745 w=0.42 l=0.15
X10 muxtest_0.x1.x3.GP1.t3 muxtest_0.x1.x3.GN1 VDPWR.t73 VDPWR.t72 sky130_fd_pr__pfet_01v8_hvt ad=0.135 pd=1.27 as=0.26 ps=2.52 w=1 l=0.15
X11 a_27491_4566# ringtest_0.x4._23_ ringtest_0.x4._09_ VSS.t608 sky130_fd_pr__nfet_01v8 ad=0.08775 pd=0.92 as=0.25025 ps=1.42 w=0.65 l=0.15
X12 VSS.t550 a_27065_5156# a_27233_5058# VSS.t549 sky130_fd_pr__nfet_01v8 ad=0.08775 pd=0.92 as=0.169 ps=1.82 w=0.65 l=0.15
X13 VDPWR.t1135 ringtest_0.x4._05_ a_24883_6800# VDPWR.t1134 sky130_fd_pr__pfet_01v8_hvt ad=0.1092 pd=1.36 as=0.05775 ps=0.695 w=0.42 l=0.15
X14 VDPWR.t1039 a_16579_11759# ringtest_0.x3.x2.GN3 VDPWR.t1038 sky130_fd_pr__pfet_01v8_hvt ad=0.2279 pd=1.74 as=0.26 ps=2.52 w=1 l=0.15
X15 VDPWR.t754 VSS.t1127 VDPWR.t753 VDPWR.t752 sky130_fd_pr__pfet_01v8_hvt ad=0.2262 pd=2.26 as=0 ps=0 w=0.87 l=4.73
X16 a_25309_5334# a_24527_5340# a_25225_5334# VDPWR.t817 sky130_fd_pr__pfet_01v8_hvt ad=0.0882 pd=0.84 as=0.0567 ps=0.69 w=0.42 l=0.15
X17 a_12019_24012# muxtest_0.x2.x1.nSEL1 VSS.t548 VSS.t547 sky130_fd_pr__nfet_01v8 ad=0.0567 pd=0.69 as=0.1118 ps=1.04 w=0.42 l=0.15
X18 a_26913_4566# ringtest_0.x4._15_ a_26817_4566# VSS.t575 sky130_fd_pr__nfet_01v8 ad=0.104 pd=0.97 as=0.10725 ps=0.98 w=0.65 l=0.15
X19 VSS.t579 ringtest_0.x4._21_ a_24545_5878# VSS.t578 sky130_fd_pr__nfet_01v8 ad=0.0567 pd=0.69 as=0.1092 ps=1.36 w=0.42 l=0.15
X20 muxtest_0.x1.x3.GP4.t3 muxtest_0.x1.x3.GN4 VDPWR.t1011 VDPWR.t1010 sky130_fd_pr__pfet_01v8_hvt ad=0.135 pd=1.27 as=0.26 ps=2.52 w=1 l=0.15
X21 ringtest_0.x1.sky130_fd_sc_hd__inv_2_12.A ringtest_0.x1.sky130_fd_sc_hd__inv_2_11.A VDPWR.t77 VDPWR.t76 sky130_fd_pr__pfet_01v8_hvt ad=0.135 pd=1.27 as=0.26 ps=2.52 w=1 l=0.15
X22 VDPWR.t361 ringtest_0.x4._15_ a_25925_6788# VDPWR.t360 sky130_fd_pr__pfet_01v8_hvt ad=0.31245 pd=1.68 as=0.0588 ps=0.7 w=0.42 l=0.15
X23 a_24004_6128# ringtest_0.x4._17_ a_23932_6128# VDPWR.t1143 sky130_fd_pr__pfet_01v8_hvt ad=0.165 pd=1.33 as=0.105 ps=1.21 w=1 l=0.15
X24 VSS.t904 VDPWR.t1168 VSS.t903 VSS.t902 sky130_fd_pr__nfet_01v8 ad=0.143 pd=1.62 as=0 ps=0 w=0.55 l=4.73
X25 a_23467_4818# ringtest_0.x4._11_.t4 a_23381_4818# VSS.t854 sky130_fd_pr__nfet_01v8 ad=0.0567 pd=0.69 as=0.1176 ps=1.4 w=0.42 l=0.15
X26 a_19114_31955# a_19290_32287# a_19242_32347# VSS.t967 sky130_fd_pr__nfet_01v8 ad=0.1092 pd=1.36 as=0.0504 ps=0.66 w=0.42 l=0.15
X27 VSS.t906 VDPWR.t1169 VSS.t905 VSS.t85 sky130_fd_pr__nfet_01v8 ad=0.143 pd=1.62 as=0 ps=0 w=0.55 l=0.59
X28 ringtest_0.x4.clknet_1_1__leaf_clk.t14 a_25364_5878# VSS.t1091 VSS.t1090 sky130_fd_pr__nfet_01v8 ad=0.0588 pd=0.7 as=0.0588 ps=0.7 w=0.42 l=0.15
X29 VDPWR.t963 a_21375_3867# ringtest_0.x4.counter[1] VDPWR.t962 sky130_fd_pr__pfet_01v8_hvt ad=0.11455 pd=1.08 as=0.2054 ps=2.1 w=0.79 l=0.15
X30 VDPWR.t129 ringtest_0.x4.net5 a_22486_4246# VDPWR.t128 sky130_fd_pr__pfet_01v8_hvt ad=0.28 pd=2.56 as=0.105 ps=1.21 w=1 l=0.15
X31 muxtest_0.x1.x1.nSEL0 ui_in[0].t0 VSS.t1 VSS.t0 sky130_fd_pr__nfet_01v8 ad=0.08775 pd=0.92 as=0.169 ps=1.82 w=0.65 l=0.15
X32 VDPWR.t849 a_19842_32287# a_19666_31955# VDPWR.t848 sky130_fd_pr__pfet_01v8_hvt ad=0.0714 pd=0.76 as=0.0609 ps=0.71 w=0.42 l=0.15
X33 muxtest_0.R3R4.t9 muxtest_0.x2.x2.GN3 ua[2].t11 VSS.t947 sky130_fd_pr__nfet_01v8_lvt ad=2.32 pd=16.58 as=2.32 ps=16.58 w=8 l=0.35
X34 VDPWR.t751 VSS.t1128 VDPWR.t750 VDPWR.t749 sky130_fd_pr__pfet_01v8_hvt ad=0.2262 pd=2.26 as=0 ps=0 w=0.87 l=4.73
X35 a_12473_23980# ui_in[4].t0 VDPWR.t789 VDPWR.t788 sky130_fd_pr__pfet_01v8_hvt ad=0.1092 pd=1.36 as=0.0714 ps=0.76 w=0.42 l=0.15
X36 muxtest_0.x1.x4.A muxtest_0.x1.x3.GP3 muxtest_0.R1R2.t1 VDPWR.t123 sky130_fd_pr__pfet_01v8_lvt ad=2.9 pd=20.58 as=2.9 ps=20.58 w=10 l=0.35
X37 a_16579_11759# a_16755_12091# a_16707_12151# VSS.t929 sky130_fd_pr__nfet_01v8 ad=0.1092 pd=1.36 as=0.0504 ps=0.66 w=0.42 l=0.15
X38 VDPWR.t5 a_13501_23906# muxtest_0.x2.x2.GN4 VDPWR.t4 sky130_fd_pr__pfet_01v8_hvt ad=0.16655 pd=1.39 as=0.475 ps=2.95 w=1 l=0.15
X39 VDPWR.t219 a_19289_13081.t2 ringtest_0.drv_out.t18 VDPWR.t218 sky130_fd_pr__pfet_01v8 ad=1.485 pd=9.33 as=1.485 ps=9.33 w=9 l=0.15
X40 VSS.t5 a_21465_9294# ringtest_0.x4.net2.t0 VSS.t4 sky130_fd_pr__nfet_01v8 ad=0.08775 pd=0.92 as=0.169 ps=1.82 w=0.65 l=0.15
X41 ringtest_0.x4.clknet_0_clk.t31 a_23879_6940# VDPWR.t425 VDPWR.t424 sky130_fd_pr__pfet_01v8_hvt ad=0.14 pd=1.28 as=0.14 ps=1.28 w=1 l=0.15
X42 VDPWR.t249 a_22021_4220# ringtest_0.x4._03_ VDPWR.t248 sky130_fd_pr__pfet_01v8_hvt ad=0.18575 pd=1.415 as=0.26 ps=2.52 w=1 l=0.15
X43 VSS.t304 ringtest_0.x4.net5 a_23467_4584# VSS.t303 sky130_fd_pr__nfet_01v8 ad=0.1118 pd=1.04 as=0.0567 ps=0.69 w=0.42 l=0.15
X44 muxtest_0.x2.nselect2 VDPWR.t951 VDPWR.t953 VDPWR.t952 sky130_fd_pr__pfet_01v8_hvt ad=0.135 pd=1.27 as=0.26 ps=2.52 w=1 l=0.15
X45 a_16707_12151# ui_in[4].t1 VSS.t114 VSS.t113 sky130_fd_pr__nfet_01v8 ad=0.0504 pd=0.66 as=0.1013 ps=0.99 w=0.42 l=0.15
X46 VSS.t909 VDPWR.t1170 VSS.t908 VSS.t907 sky130_fd_pr__nfet_01v8 ad=0.143 pd=1.62 as=0 ps=0 w=0.55 l=4.73
X47 VDPWR.t748 VSS.t1129 VDPWR.t747 VDPWR.t613 sky130_fd_pr__pfet_01v8_hvt ad=0.2262 pd=2.26 as=0 ps=0 w=0.87 l=1.05
X48 ringtest_0.x4._15_ a_23381_4584# VSS.t829 VSS.t828 sky130_fd_pr__nfet_01v8 ad=0.182 pd=1.86 as=0.1118 ps=1.04 w=0.65 l=0.15
X49 a_23899_5334# ringtest_0.x4._15_ VDPWR.t359 VDPWR.t358 sky130_fd_pr__pfet_01v8_hvt ad=0.16 pd=1.32 as=0.1725 ps=1.345 w=1 l=0.15
X50 VDPWR.t330 a_27065_5156# a_27233_5058# VDPWR.t320 sky130_fd_pr__pfet_01v8_hvt ad=0.135 pd=1.27 as=0.27 ps=2.54 w=1 l=0.15
X51 muxtest_0.x1.x3.GP3 muxtest_0.x1.x3.GN3 VDPWR.t852 VDPWR.t851 sky130_fd_pr__pfet_01v8_hvt ad=0.135 pd=1.27 as=0.26 ps=2.52 w=1 l=0.15
X52 VSS.t912 VDPWR.t1171 VSS.t911 VSS.t910 sky130_fd_pr__nfet_01v8 ad=0.143 pd=1.62 as=0 ps=0 w=0.55 l=2.89
X53 VSS.t993 ringtest_0.x4.net3.t2 ringtest_0.x4._12_ VSS.t992 sky130_fd_pr__nfet_01v8 ad=0.17225 pd=1.83 as=0.091 ps=0.93 w=0.65 l=0.15
X54 VSS.t11 a_25975_3867# ringtest_0.x4.counter[6] VSS.t10 sky130_fd_pr__nfet_01v8 ad=0.0754 pd=0.81 as=0.1352 ps=1.56 w=0.52 l=0.15
X55 a_24329_6640# ringtest_0.x4.clknet_1_1__leaf_clk.t32 VDPWR.t1159 VDPWR.t1158 sky130_fd_pr__pfet_01v8_hvt ad=0.1664 pd=1.8 as=0.0864 ps=0.91 w=0.64 l=0.15
X56 muxtest_0.x1.x5.A ui_in[2].t0 ua[3].t8 VDPWR.t772 sky130_fd_pr__pfet_01v8_lvt ad=2.9 pd=20.58 as=2.9 ps=20.58 w=10 l=0.35
X57 ua[1].t1 ringtest_0.x3.x2.GP4.t4 ringtest_0.counter7.t1 VDPWR.t1094 sky130_fd_pr__pfet_01v8_lvt ad=2.9 pd=20.58 as=2.9 ps=20.58 w=10 l=0.35
X58 a_22392_5990# a_22224_6244# VDPWR.t921 VDPWR.t920 sky130_fd_pr__pfet_01v8_hvt ad=0.1095 pd=1.075 as=0.178875 ps=1.26 w=0.75 l=0.15
X59 ringtest_0.x4.clknet_1_0__leaf_clk.t31 a_21395_6940# VDPWR.t1086 VDPWR.t1085 sky130_fd_pr__pfet_01v8_hvt ad=0.14 pd=1.28 as=0.14 ps=1.28 w=1 l=0.15
X60 VSS.t1017 ringtest_0.x4._22_ a_26913_4566# VSS.t1016 sky130_fd_pr__nfet_01v8 ad=0.112125 pd=0.995 as=0.104 ps=0.97 w=0.65 l=0.15
X61 a_26640_5334# a_26367_5340# a_26555_5334# VDPWR.t151 sky130_fd_pr__pfet_01v8_hvt ad=0.06825 pd=0.745 as=0.05775 ps=0.695 w=0.42 l=0.15
X62 ringtest_0.x4.clknet_1_1__leaf_clk.t31 a_25364_5878# VDPWR.t1131 VDPWR.t1130 sky130_fd_pr__pfet_01v8_hvt ad=0.14 pd=1.28 as=0.14 ps=1.28 w=1 l=0.15
X63 VDPWR.t746 VSS.t1130 VDPWR.t745 VDPWR.t744 sky130_fd_pr__pfet_01v8_hvt ad=0.2262 pd=2.26 as=0 ps=0 w=0.87 l=1.05
X64 VSS.t39 VDPWR.t1172 VSS.t38 VSS.t37 sky130_fd_pr__nfet_01v8 ad=0.143 pd=1.62 as=0 ps=0 w=0.55 l=4.73
X65 a_21785_8054# ringtest_0.x4.net3.t3 VDPWR.t1018 VDPWR.t1017 sky130_fd_pr__pfet_01v8_hvt ad=0.06615 pd=0.735 as=0.0567 ps=0.69 w=0.42 l=0.15
X66 ringtest_0.x4._17_ a_25925_6788# VSS.t479 VSS.t478 sky130_fd_pr__nfet_01v8 ad=0.169 pd=1.82 as=0.196275 ps=1.33 w=0.65 l=0.15
X67 VSS.t359 a_19114_31955# muxtest_0.x1.x3.GN2 VSS.t358 sky130_fd_pr__nfet_01v8 ad=0.1013 pd=0.99 as=0.169 ps=1.82 w=0.65 l=0.15
X68 VDPWR.t183 ringtest_0.x1.sky130_fd_sc_hd__inv_2_7.A ringtest_0.x1.sky130_fd_sc_hd__inv_2_7.Y VDPWR.t182 sky130_fd_pr__pfet_01v8_hvt ad=0.26 pd=2.52 as=0.135 ps=1.27 w=1 l=0.15
X69 VDPWR.t950 VDPWR.t948 ringtest_0.x3.nselect2 VDPWR.t949 sky130_fd_pr__pfet_01v8_hvt ad=0.26 pd=2.52 as=0.135 ps=1.27 w=1 l=0.15
X70 VDPWR.t423 a_23879_6940# ringtest_0.x4.clknet_0_clk.t30 VDPWR.t422 sky130_fd_pr__pfet_01v8_hvt ad=0.14 pd=1.28 as=0.14 ps=1.28 w=1 l=0.15
X71 VSS.t856 ringtest_0.x4.net4 ringtest_0.x4._13_ VSS.t855 sky130_fd_pr__nfet_01v8 ad=0.169 pd=1.82 as=0.08775 ps=0.92 w=0.65 l=0.15
X72 a_24317_4942# ringtest_0.x4.net6.t3 a_24551_4790# VSS.t330 sky130_fd_pr__nfet_01v8 ad=0.1092 pd=1.36 as=0.0441 ps=0.63 w=0.42 l=0.15
X73 VSS.t723 ringtest_0.x4.clknet_0_clk.t32 a_25364_5878# VSS.t722 sky130_fd_pr__nfet_01v8 ad=0.0588 pd=0.7 as=0.0588 ps=0.7 w=0.42 l=0.15
X74 VSS.t127 a_22111_10993# ringtest_0.x4.net1 VSS.t126 sky130_fd_pr__nfet_01v8 ad=0.0754 pd=0.81 as=0.1352 ps=1.56 w=0.52 l=0.15
X75 VSS.t42 VDPWR.t1173 VSS.t41 VSS.t40 sky130_fd_pr__nfet_01v8 ad=0.143 pd=1.62 as=0 ps=0 w=0.55 l=4.73
X76 VDPWR.t141 a_27815_3867# ringtest_0.x4.counter[8] VDPWR.t140 sky130_fd_pr__pfet_01v8_hvt ad=0.11455 pd=1.08 as=0.2054 ps=2.1 w=0.79 l=0.15
X77 ringtest_0.x4._00_ a_21425_9686# a_21675_9686# VDPWR.t857 sky130_fd_pr__pfet_01v8_hvt ad=0.3 pd=2.6 as=0.26 ps=2.52 w=1 l=0.15
X78 VDPWR.t743 VSS.t1131 VDPWR.t742 VDPWR.t602 sky130_fd_pr__pfet_01v8_hvt ad=0.2262 pd=2.26 as=0 ps=0 w=0.87 l=0.59
X79 VDPWR.t741 VSS.t1132 VDPWR.t740 VDPWR.t739 sky130_fd_pr__pfet_01v8_hvt ad=0.2262 pd=2.26 as=0 ps=0 w=0.87 l=1.05
X80 VDPWR.t841 ringtest_0.x1.sky130_fd_sc_hd__inv_2_2.A ringtest_0.x1.sky130_fd_sc_hd__inv_2_3.A VDPWR.t840 sky130_fd_pr__pfet_01v8_hvt ad=0.26 pd=2.52 as=0.135 ps=1.27 w=1 l=0.15
X81 VDPWR.t175 ringtest_0.x4._00_ a_22399_9142# VDPWR.t174 sky130_fd_pr__pfet_01v8_hvt ad=0.1092 pd=1.36 as=0.05775 ps=0.695 w=0.42 l=0.15
X82 VSS.t640 a_23879_6940# ringtest_0.x4.clknet_0_clk.t14 VSS.t639 sky130_fd_pr__nfet_01v8 ad=0.0588 pd=0.7 as=0.0588 ps=0.7 w=0.42 l=0.15
X83 a_21675_4790# a_21509_4790# VSS.t557 VSS.t556 sky130_fd_pr__nfet_01v8 ad=0.1092 pd=1.36 as=0.0567 ps=0.69 w=0.42 l=0.15
X84 VSS.t1055 ui_in[0].t1 a_19842_32287# VSS.t1054 sky130_fd_pr__nfet_01v8 ad=0.1092 pd=1.36 as=0.1092 ps=1.36 w=0.42 l=0.15
X85 VSS.t45 VDPWR.t1174 VSS.t44 VSS.t43 sky130_fd_pr__nfet_01v8 ad=0.143 pd=1.62 as=0 ps=0 w=0.55 l=4.73
X86 VDPWR.t1084 a_21395_6940# ringtest_0.x4.clknet_1_0__leaf_clk.t30 VDPWR.t1083 sky130_fd_pr__pfet_01v8_hvt ad=0.14 pd=1.28 as=0.14 ps=1.28 w=1 l=0.15
X87 VSS.t136 a_23399_3867# ringtest_0.counter3.t2 VSS.t135 sky130_fd_pr__nfet_01v8 ad=0.0754 pd=0.81 as=0.1352 ps=1.56 w=0.52 l=0.15
X88 VDPWR.t286 a_18662_32213# muxtest_0.x1.x3.GN1 VDPWR.t285 sky130_fd_pr__pfet_01v8_hvt ad=0.16655 pd=1.39 as=0.475 ps=2.95 w=1 l=0.15
X89 VDPWR.t941 ringtest_0.x4.net2.t3 a_21507_9686# VDPWR.t940 sky130_fd_pr__pfet_01v8_hvt ad=0.135 pd=1.27 as=0.135 ps=1.27 w=1 l=0.15
X90 VDPWR.t738 VSS.t1133 VDPWR.t737 VDPWR.t736 sky130_fd_pr__pfet_01v8_hvt ad=0.2262 pd=2.26 as=0 ps=0 w=0.87 l=4.73
X91 a_27659_4246# ringtest_0.x4.net11 VDPWR.t809 VDPWR.t96 sky130_fd_pr__pfet_01v8_hvt ad=0.135 pd=1.27 as=0.135 ps=1.27 w=1 l=0.15
X92 a_22390_4566# ringtest_0.x4.net5 VSS.t302 VSS.t301 sky130_fd_pr__nfet_01v8 ad=0.17225 pd=1.83 as=0.08775 ps=0.92 w=0.65 l=0.15
X93 ringtest_0.x3.x1.nSEL1 ui_in[4].t2 VSS.t116 VSS.t115 sky130_fd_pr__nfet_01v8 ad=0.08775 pd=0.92 as=0.169 ps=1.82 w=0.65 l=0.15
X94 ringtest_0.x4.clknet_1_0__leaf_clk.t15 a_21395_6940# VSS.t1051 VSS.t1050 sky130_fd_pr__nfet_01v8 ad=0.0588 pd=0.7 as=0.0588 ps=0.7 w=0.42 l=0.15
X95 a_22649_6244# a_21785_5878# a_22392_5990# VDPWR.t156 sky130_fd_pr__pfet_01v8_hvt ad=0.0567 pd=0.69 as=0.1095 ps=1.075 w=0.42 l=0.15
X96 muxtest_0.x1.x3.GP2.t3 muxtest_0.x1.x3.GN2 VDPWR.t179 VDPWR.t178 sky130_fd_pr__pfet_01v8_hvt ad=0.135 pd=1.27 as=0.26 ps=2.52 w=1 l=0.15
X97 ua[3].t9 ui_in[2].t1 muxtest_0.x1.x4.A VSS.t662 sky130_fd_pr__nfet_01v8_lvt ad=2.32 pd=16.58 as=2.32 ps=16.58 w=8 l=0.35
X98 muxtest_0.R5R6.t5 muxtest_0.x1.x3.GN3 muxtest_0.x1.x5.A VSS.t838 sky130_fd_pr__nfet_01v8_lvt ad=2.32 pd=16.58 as=2.32 ps=16.58 w=8 l=0.35
X99 VSS.t965 a_24329_6640# a_24336_6544# VSS.t964 sky130_fd_pr__nfet_01v8 ad=0.0567 pd=0.69 as=0.1092 ps=1.36 w=0.42 l=0.15
X100 a_27303_4246# a_27273_4220# ringtest_0.x4._09_ VDPWR.t167 sky130_fd_pr__pfet_01v8_hvt ad=0.26 pd=2.52 as=0.3 ps=2.6 w=1 l=0.15
X101 VDPWR.t735 VSS.t1134 VDPWR.t734 VDPWR.t733 sky130_fd_pr__pfet_01v8_hvt ad=0.2262 pd=2.26 as=0 ps=0 w=0.87 l=1.05
X102 ringtest_0.x4.clknet_1_0__leaf_clk.t29 a_21395_6940# VDPWR.t1082 VDPWR.t1081 sky130_fd_pr__pfet_01v8_hvt ad=0.14 pd=1.28 as=0.265 ps=2.53 w=1 l=0.15
X103 VSS.t924 ringtest_0.x4.net2.t4 a_21425_9686# VSS.t923 sky130_fd_pr__nfet_01v8 ad=0.08775 pd=0.92 as=0.08775 ps=0.92 w=0.65 l=0.15
X104 a_19666_31955# a_19842_32287# a_19794_32347# VSS.t830 sky130_fd_pr__nfet_01v8 ad=0.1092 pd=1.36 as=0.0504 ps=0.66 w=0.42 l=0.15
X105 muxtest_0.R3R4.t1 muxtest_0.x1.x3.GN1 muxtest_0.x1.x4.A VSS.t155 sky130_fd_pr__nfet_01v8_lvt ad=2.32 pd=16.58 as=2.32 ps=16.58 w=8 l=0.35
X106 VDPWR.t885 ringtest_0.x1.sky130_fd_sc_hd__inv_2_5.A ringtest_0.x1.sky130_fd_sc_hd__inv_2_6.A VDPWR.t884 sky130_fd_pr__pfet_01v8_hvt ad=0.26 pd=2.52 as=0.135 ps=1.27 w=1 l=0.15
X107 a_21845_8816# ringtest_0.x4.clknet_1_0__leaf_clk.t32 VDPWR.t1014 VDPWR.t1013 sky130_fd_pr__pfet_01v8_hvt ad=0.1664 pd=1.8 as=0.0864 ps=0.91 w=0.64 l=0.15
X108 VSS.t1049 a_21395_6940# ringtest_0.x4.clknet_1_0__leaf_clk.t14 VSS.t1048 sky130_fd_pr__nfet_01v8 ad=0.0588 pd=0.7 as=0.0588 ps=0.7 w=0.42 l=0.15
X109 a_21672_5334# a_21399_5340# a_21587_5334# VDPWR.t294 sky130_fd_pr__pfet_01v8_hvt ad=0.06825 pd=0.745 as=0.05775 ps=0.695 w=0.42 l=0.15
X110 ringtest_0.x4.clknet_1_1__leaf_clk.t30 a_25364_5878# VDPWR.t1129 VDPWR.t1128 sky130_fd_pr__pfet_01v8_hvt ad=0.14 pd=1.28 as=0.14 ps=1.28 w=1 l=0.15
X111 VDPWR.t732 VSS.t1135 VDPWR.t731 VDPWR.t730 sky130_fd_pr__pfet_01v8_hvt ad=0.2262 pd=2.26 as=0 ps=0 w=0.87 l=0.59
X112 a_18662_32213# muxtest_0.x1.x1.nSEL0 a_18836_32319# VSS.t648 sky130_fd_pr__nfet_01v8 ad=0.1176 pd=1.4 as=0.0567 ps=0.69 w=0.42 l=0.15
X113 a_16203_12091# ui_in[4].t3 VDPWR.t113 VDPWR.t112 sky130_fd_pr__pfet_01v8_hvt ad=0.1092 pd=1.36 as=0.0714 ps=0.76 w=0.42 l=0.15
X114 a_19794_32347# ui_in[1].t1 VSS.t752 VSS.t751 sky130_fd_pr__nfet_01v8 ad=0.0504 pd=0.66 as=0.1013 ps=0.99 w=0.42 l=0.15
X115 VDPWR.t729 VSS.t1136 VDPWR.t728 VDPWR.t727 sky130_fd_pr__pfet_01v8_hvt ad=0.2262 pd=2.26 as=0 ps=0 w=0.87 l=1.05
X116 VDPWR.t813 a_22817_6146# a_22733_6244# VDPWR.t812 sky130_fd_pr__pfet_01v8_hvt ad=0.1113 pd=1.37 as=0.0882 ps=0.84 w=0.42 l=0.15
X117 VDPWR.t207 a_17231_12017# ringtest_0.x3.x2.GN4 VDPWR.t206 sky130_fd_pr__pfet_01v8_hvt ad=0.16655 pd=1.39 as=0.475 ps=2.95 w=1 l=0.15
X118 VDPWR.t421 a_23879_6940# ringtest_0.x4.clknet_0_clk.t29 VDPWR.t420 sky130_fd_pr__pfet_01v8_hvt ad=0.14 pd=1.28 as=0.14 ps=1.28 w=1 l=0.15
X119 VSS.t1089 a_25364_5878# ringtest_0.x4.clknet_1_1__leaf_clk.t13 VSS.t1088 sky130_fd_pr__nfet_01v8 ad=0.0588 pd=0.7 as=0.0588 ps=0.7 w=0.42 l=0.15
X120 ringtest_0.x3.nselect2 VDPWR.t945 VDPWR.t947 VDPWR.t946 sky130_fd_pr__pfet_01v8_hvt ad=0.135 pd=1.27 as=0.26 ps=2.52 w=1 l=0.15
X121 a_25925_6788# ringtest_0.x4.net6.t4 VDPWR.t162 VDPWR.t161 sky130_fd_pr__pfet_01v8_hvt ad=0.0735 pd=0.77 as=0.1092 ps=1.36 w=0.42 l=0.15
X122 a_25975_3867# ringtest_0.x4.net8 VDPWR.t802 VDPWR.t801 sky130_fd_pr__pfet_01v8_hvt ad=0.2054 pd=2.1 as=0.11455 ps=1.08 w=0.79 l=0.15
X123 ringtest_0.x4.net10 a_27233_5308# VDPWR.t832 VDPWR.t831 sky130_fd_pr__pfet_01v8_hvt ad=0.26 pd=2.52 as=0.135 ps=1.27 w=1 l=0.15
X124 a_11845_23906# muxtest_0.x2.x1.nSEL1 VDPWR.t329 VDPWR.t328 sky130_fd_pr__pfet_01v8_hvt ad=0.0567 pd=0.69 as=0.16655 ps=1.39 w=0.42 l=0.15
X125 ringtest_0.x1.sky130_fd_sc_hd__inv_2_5.A ringtest_0.x1.sky130_fd_sc_hd__inv_2_4.A VSS.t514 VSS.t513 sky130_fd_pr__nfet_01v8 ad=0.08775 pd=0.92 as=0.169 ps=1.82 w=0.65 l=0.15
X126 VDPWR.t276 ringtest_0.x1.sky130_fd_sc_hd__inv_2_16.A ringtest_0.x1.sky130_fd_sc_hd__inv_2_17.A VDPWR.t275 sky130_fd_pr__pfet_01v8_hvt ad=0.26 pd=2.52 as=0.135 ps=1.27 w=1 l=0.15
X127 a_21939_8054# ringtest_0.x4.net3.t4 a_21867_8054# VSS.t994 sky130_fd_pr__nfet_01v8 ad=0.0441 pd=0.63 as=0.0441 ps=0.63 w=0.42 l=0.15
X128 a_26721_4246# ringtest_0.x4.net10 a_26627_4246# VDPWR.t837 sky130_fd_pr__pfet_01v8_hvt ad=0.165 pd=1.33 as=0.32 ps=2.64 w=1 l=0.15
X129 a_22116_4902# a_21948_5156# VSS.t847 VSS.t846 sky130_fd_pr__nfet_01v8 ad=0.0989 pd=0.995 as=0.12095 ps=1.085 w=0.64 l=0.15
X130 VDPWR.t1080 a_21395_6940# ringtest_0.x4.clknet_1_0__leaf_clk.t28 VDPWR.t1079 sky130_fd_pr__pfet_01v8_hvt ad=0.1375 pd=1.275 as=0.14 ps=1.28 w=1 l=0.15
X131 a_25149_4220# ringtest_0.x4.net7 VDPWR.t228 VDPWR.t227 sky130_fd_pr__pfet_01v8_hvt ad=0.0735 pd=0.77 as=0.0777 ps=0.79 w=0.42 l=0.15
X132 VDPWR.t891 a_21840_5308# a_21767_5334# VDPWR.t890 sky130_fd_pr__pfet_01v8_hvt ad=0.178875 pd=1.26 as=0.07665 ps=0.785 w=0.42 l=0.15
X133 VSS.t48 VDPWR.t1175 VSS.t47 VSS.t46 sky130_fd_pr__nfet_01v8 ad=0.143 pd=1.62 as=0 ps=0 w=0.55 l=4.73
X134 VSS.t51 VDPWR.t1176 VSS.t50 VSS.t49 sky130_fd_pr__nfet_01v8 ad=0.143 pd=1.62 as=0 ps=0 w=0.55 l=1.05
X135 VDPWR.t173 ringtest_0.x1.sky130_fd_sc_hd__inv_2_7.Y ringtest_0.x1.sky130_fd_sc_hd__inv_2_9.A VDPWR.t172 sky130_fd_pr__pfet_01v8_hvt ad=0.26 pd=2.52 as=0.135 ps=1.27 w=1 l=0.15
X136 VDPWR.t726 VSS.t1137 VDPWR.t725 VDPWR.t724 sky130_fd_pr__pfet_01v8_hvt ad=0.2262 pd=2.26 as=0 ps=0 w=0.87 l=1.05
X137 a_24627_6200# ringtest_0.x4._21_ VDPWR.t365 VDPWR.t364 sky130_fd_pr__pfet_01v8_hvt ad=0.0441 pd=0.63 as=0.1092 ps=1.36 w=0.42 l=0.15
X138 VSS.t658 ringtest_0.x4._16_.t2 a_24986_5878# VSS.t657 sky130_fd_pr__nfet_01v8 ad=0.098625 pd=0.98 as=0.06615 ps=0.735 w=0.42 l=0.15
X139 VSS.t54 VDPWR.t1177 VSS.t53 VSS.t52 sky130_fd_pr__nfet_01v8 ad=0.143 pd=1.62 as=0 ps=0 w=0.55 l=4.73
X140 VDPWR.t349 a_22245_8054# ringtest_0.x4._11_.t3 VDPWR.t348 sky130_fd_pr__pfet_01v8_hvt ad=0.26 pd=2.52 as=0.135 ps=1.27 w=1 l=0.15
X141 a_25977_4220# ringtest_0.x4._11_.t5 VDPWR.t1041 VDPWR.t1040 sky130_fd_pr__pfet_01v8_hvt ad=0.0735 pd=0.77 as=0.0777 ps=0.79 w=0.42 l=0.15
X142 VSS.t57 VDPWR.t1178 VSS.t56 VSS.t55 sky130_fd_pr__nfet_01v8 ad=0.143 pd=1.62 as=0 ps=0 w=0.55 l=4.73
X143 a_26367_4790# a_26201_4790# VSS.t321 VSS.t320 sky130_fd_pr__nfet_01v8 ad=0.1092 pd=1.36 as=0.0567 ps=0.69 w=0.42 l=0.15
X144 VDPWR.t723 VSS.t1138 VDPWR.t722 VDPWR.t624 sky130_fd_pr__pfet_01v8_hvt ad=0.2262 pd=2.26 as=0 ps=0 w=0.87 l=0.59
X145 a_25677_5156# a_24895_4790# a_25593_5156# VDPWR.t767 sky130_fd_pr__pfet_01v8_hvt ad=0.0882 pd=0.84 as=0.0567 ps=0.69 w=0.42 l=0.15
X146 VDPWR.t1142 ringtest_0.x4._17_ a_23349_6422# VDPWR.t1141 sky130_fd_pr__pfet_01v8_hvt ad=0.0714 pd=0.76 as=0.1092 ps=1.36 w=0.42 l=0.15
X147 VDPWR.t357 ringtest_0.x4._15_ a_25977_4220# VDPWR.t356 sky130_fd_pr__pfet_01v8_hvt ad=0.0777 pd=0.79 as=0.0588 ps=0.7 w=0.42 l=0.15
X148 VDPWR.t721 VSS.t1139 VDPWR.t720 VDPWR.t498 sky130_fd_pr__pfet_01v8_hvt ad=0.2262 pd=2.26 as=0 ps=0 w=0.87 l=1.05
X149 VDPWR.t187 muxtest_0.x2.x2.GN2 muxtest_0.x2.x2.GP2.t3 VDPWR.t186 sky130_fd_pr__pfet_01v8_hvt ad=0.26 pd=2.52 as=0.135 ps=1.27 w=1 l=0.15
X150 VDPWR.t309 a_24070_5852# a_24004_6128# VDPWR.t308 sky130_fd_pr__pfet_01v8_hvt ad=0.3 pd=2.6 as=0.165 ps=1.33 w=1 l=0.15
X151 muxtest_0.x1.x5.A muxtest_0.x1.x3.GP2.t4 muxtest_0.R6R7.t1 VDPWR.t13 sky130_fd_pr__pfet_01v8_lvt ad=2.9 pd=20.58 as=2.9 ps=20.58 w=10 l=0.35
X152 ua[0].t1 muxtest_0.x2.x2.GN2 ua[2].t1 VSS.t357 sky130_fd_pr__nfet_01v8_lvt ad=2.32 pd=16.58 as=2.32 ps=16.58 w=8 l=0.35
X153 VSS.t587 a_25977_4220# ringtest_0.x4._23_ VSS.t586 sky130_fd_pr__nfet_01v8 ad=0.196275 pd=1.33 as=0.169 ps=1.82 w=0.65 l=0.15
X154 VDPWR.t719 VSS.t1140 VDPWR.t718 VDPWR.t717 sky130_fd_pr__pfet_01v8_hvt ad=0.2262 pd=2.26 as=0 ps=0 w=0.87 l=2.89
X155 VDPWR.t716 VSS.t1141 VDPWR.t715 VDPWR.t714 sky130_fd_pr__pfet_01v8_hvt ad=0.2262 pd=2.26 as=0 ps=0 w=0.87 l=4.73
X156 ringtest_0.x1.sky130_fd_sc_hd__inv_2_7.Y ringtest_0.x1.sky130_fd_sc_hd__inv_2_7.A VSS.t351 VSS.t350 sky130_fd_pr__nfet_01v8 ad=0.08775 pd=0.92 as=0.169 ps=1.82 w=0.65 l=0.15
X157 VDPWR.t87 ringtest_0.x1.sky130_fd_sc_hd__inv_2_13.A ringtest_0.x1.sky130_fd_sc_hd__inv_2_14.A VDPWR.t86 sky130_fd_pr__pfet_01v8_hvt ad=0.26 pd=2.52 as=0.135 ps=1.27 w=1 l=0.15
X158 a_21425_9686# ringtest_0.x4.net1 VSS.t134 VSS.t133 sky130_fd_pr__nfet_01v8 ad=0.08775 pd=0.92 as=0.169 ps=1.82 w=0.65 l=0.15
X159 VSS.t721 a_24317_4942# ringtest_0.x4._20_ VSS.t720 sky130_fd_pr__nfet_01v8 ad=0.13165 pd=1.14 as=0.169 ps=1.82 w=0.65 l=0.15
X160 muxtest_0.x1.x1.nSEL1 ui_in[1].t2 VDPWR.t815 VDPWR.t814 sky130_fd_pr__pfet_01v8_hvt ad=0.135 pd=1.27 as=0.26 ps=2.52 w=1 l=0.15
X161 a_21465_8830# a_21561_8830# VSS.t970 VSS.t881 sky130_fd_pr__nfet_01v8 ad=0.169 pd=1.82 as=0.08775 ps=0.92 w=0.65 l=0.15
X162 ringtest_0.x4.clknet_0_clk.t13 a_23879_6940# VSS.t638 VSS.t637 sky130_fd_pr__nfet_01v8 ad=0.0588 pd=0.7 as=0.0588 ps=0.7 w=0.42 l=0.15
X163 a_22295_3867# ringtest_0.x4.net4 VDPWR.t875 VDPWR.t874 sky130_fd_pr__pfet_01v8_hvt ad=0.2054 pd=2.1 as=0.11455 ps=1.08 w=0.79 l=0.15
X164 muxtest_0.R7R8.t9 muxtest_0.R6R7.t5 VSS.t643 sky130_fd_pr__res_high_po_1p41 l=1.75
X165 VDPWR.t713 VSS.t1142 VDPWR.t712 VDPWR.t711 sky130_fd_pr__pfet_01v8_hvt ad=0.2262 pd=2.26 as=0 ps=0 w=0.87 l=1.05
X166 a_26808_4902# a_26640_5156# VDPWR.t199 VDPWR.t198 sky130_fd_pr__pfet_01v8_hvt ad=0.1095 pd=1.075 as=0.178875 ps=1.26 w=0.75 l=0.15
X167 VSS.t60 VDPWR.t1179 VSS.t59 VSS.t58 sky130_fd_pr__nfet_01v8 ad=0.143 pd=1.62 as=0 ps=0 w=0.55 l=0.59
X168 ringtest_0.x4.clknet_1_1__leaf_clk.t29 a_25364_5878# VDPWR.t1127 VDPWR.t1126 sky130_fd_pr__pfet_01v8_hvt ad=0.14 pd=1.28 as=0.14 ps=1.28 w=1 l=0.15
X169 VSS.t731 a_26808_5308# a_26766_5712# VSS.t730 sky130_fd_pr__nfet_01v8 ad=0.12095 pd=1.085 as=0.0696 ps=0.765 w=0.42 l=0.15
X170 a_25351_5712# a_24361_5340# a_25225_5334# VSS.t163 sky130_fd_pr__nfet_01v8 ad=0.066 pd=0.745 as=0.0684 ps=0.74 w=0.36 l=0.15
X171 VSS.t1047 a_21395_6940# ringtest_0.x4.clknet_1_0__leaf_clk.t13 VSS.t1046 sky130_fd_pr__nfet_01v8 ad=0.0588 pd=0.7 as=0.0588 ps=0.7 w=0.42 l=0.15
X172 VSS.t63 VDPWR.t1180 VSS.t62 VSS.t61 sky130_fd_pr__nfet_01v8 ad=0.143 pd=1.62 as=0 ps=0 w=0.55 l=0.59
X173 muxtest_0.R7R8.t8 muxtest_0.x2.x2.GN4 ua[2].t13 VSS.t961 sky130_fd_pr__nfet_01v8_lvt ad=2.32 pd=16.58 as=2.32 ps=16.58 w=8 l=0.35
X174 ringtest_0.x1.sky130_fd_sc_hd__inv_2_3.A ringtest_0.x1.sky130_fd_sc_hd__inv_2_2.A VSS.t776 VSS.t503 sky130_fd_pr__nfet_01v8 ad=0.08775 pd=0.92 as=0.169 ps=1.82 w=0.65 l=0.15
X175 VSS.t66 VDPWR.t1181 VSS.t65 VSS.t64 sky130_fd_pr__nfet_01v8 ad=0.143 pd=1.62 as=0 ps=0 w=0.55 l=1.05
X176 a_21007_3867# ringtest_0.x4.net2.t5 VDPWR.t939 VDPWR.t938 sky130_fd_pr__pfet_01v8_hvt ad=0.2054 pd=2.1 as=0.11455 ps=1.08 w=0.79 l=0.15
X177 ringtest_0.x4.net4 a_22265_5308# VDPWR.t215 VDPWR.t214 sky130_fd_pr__pfet_01v8_hvt ad=0.26 pd=2.52 as=0.135 ps=1.27 w=1 l=0.15
X178 VDPWR.t895 ringtest_0.x1.sky130_fd_sc_hd__inv_2_17.Y ringtest_0.x1.sky130_fd_sc_hd__inv_2_8.Y VDPWR.t894 sky130_fd_pr__pfet_01v8_hvt ad=0.26 pd=2.52 as=0.135 ps=1.27 w=1 l=0.15
X179 VSS.t391 a_19289_13081.t3 ringtest_0.drv_out.t10 VSS.t390 sky130_fd_pr__nfet_01v8 ad=0.495 pd=3.33 as=0.495 ps=3.33 w=3 l=0.15
X180 a_22373_5156# a_21509_4790# a_22116_4902# VDPWR.t336 sky130_fd_pr__pfet_01v8_hvt ad=0.0567 pd=0.69 as=0.1095 ps=1.075 w=0.42 l=0.15
X181 VDPWR.t710 VSS.t1143 VDPWR.t709 VDPWR.t565 sky130_fd_pr__pfet_01v8_hvt ad=0.2262 pd=2.26 as=0 ps=0 w=0.87 l=4.73
X182 a_26895_3867# ringtest_0.x4.net9 VSS.t522 VSS.t521 sky130_fd_pr__nfet_01v8 ad=0.1352 pd=1.56 as=0.0754 ps=0.81 w=0.52 l=0.15
X183 a_27191_4790# a_26201_4790# a_27065_5156# VSS.t319 sky130_fd_pr__nfet_01v8 ad=0.066 pd=0.745 as=0.0684 ps=0.74 w=0.36 l=0.15
X184 ringtest_0.x1.sky130_fd_sc_hd__inv_2_4.A ringtest_0.x1.sky130_fd_sc_hd__inv_2_3.A VDPWR.t845 VDPWR.t844 sky130_fd_pr__pfet_01v8_hvt ad=0.135 pd=1.27 as=0.26 ps=2.52 w=1 l=0.15
X185 VDPWR.t708 VSS.t1144 VDPWR.t707 VDPWR.t489 sky130_fd_pr__pfet_01v8_hvt ad=0.2262 pd=2.26 as=0 ps=0 w=0.87 l=0.59
X186 VSS.t69 VDPWR.t1182 VSS.t68 VSS.t67 sky130_fd_pr__nfet_01v8 ad=0.143 pd=1.62 as=0 ps=0 w=0.55 l=1.97
X187 a_22116_4902# a_21948_5156# VDPWR.t863 VDPWR.t862 sky130_fd_pr__pfet_01v8_hvt ad=0.1095 pd=1.075 as=0.178875 ps=1.26 w=0.75 l=0.15
X188 VSS.t738 ringtest_0.x4.net8 a_23837_5878# VSS.t737 sky130_fd_pr__nfet_01v8 ad=0.08775 pd=0.92 as=0.17225 ps=1.83 w=0.65 l=0.15
X189 VDPWR.t1078 a_21395_6940# ringtest_0.x4.clknet_1_0__leaf_clk.t27 VDPWR.t1077 sky130_fd_pr__pfet_01v8_hvt ad=0.14 pd=1.28 as=0.14 ps=1.28 w=1 l=0.15
X190 a_16755_12091# ui_in[3].t0 VDPWR.t131 VDPWR.t130 sky130_fd_pr__pfet_01v8_hvt ad=0.1092 pd=1.36 as=0.0714 ps=0.76 w=0.42 l=0.15
X191 VDPWR.t1125 a_25364_5878# ringtest_0.x4.clknet_1_1__leaf_clk.t28 VDPWR.t1124 sky130_fd_pr__pfet_01v8_hvt ad=0.1375 pd=1.275 as=0.14 ps=1.28 w=1 l=0.15
X192 VDPWR.t1138 ringtest_0.x3.x2.GN3 ringtest_0.x3.x2.GP3 VDPWR.t930 sky130_fd_pr__pfet_01v8_hvt ad=0.26 pd=2.52 as=0.135 ps=1.27 w=1 l=0.15
X193 ringtest_0.x4.clknet_1_0__leaf_clk.t12 a_21395_6940# VSS.t1045 VSS.t1044 sky130_fd_pr__nfet_01v8 ad=0.0588 pd=0.7 as=0.0588 ps=0.7 w=0.42 l=0.15
X194 VSS.t72 VDPWR.t1183 VSS.t71 VSS.t70 sky130_fd_pr__nfet_01v8 ad=0.143 pd=1.62 as=0 ps=0 w=0.55 l=0.59
X195 VSS.t161 a_21007_3867# ringtest_0.x4.counter[0] VSS.t160 sky130_fd_pr__nfet_01v8 ad=0.0754 pd=0.81 as=0.1352 ps=1.56 w=0.52 l=0.15
X196 a_22181_5334# a_21399_5340# a_22097_5334# VDPWR.t293 sky130_fd_pr__pfet_01v8_hvt ad=0.0882 pd=0.84 as=0.0567 ps=0.69 w=0.42 l=0.15
X197 a_20318_32213# ui_in[1].t3 a_20492_32319# VSS.t288 sky130_fd_pr__nfet_01v8 ad=0.1176 pd=1.4 as=0.0567 ps=0.69 w=0.42 l=0.15
X198 VSS.t339 ringtest_0.x4._00_ a_22399_9142# VSS.t338 sky130_fd_pr__nfet_01v8 ad=0.1092 pd=1.36 as=0.0813 ps=0.83 w=0.42 l=0.15
X199 a_22224_6244# a_21951_5878# a_22139_5878# VDPWR.t804 sky130_fd_pr__pfet_01v8_hvt ad=0.06825 pd=0.745 as=0.05775 ps=0.695 w=0.42 l=0.15
X200 ringtest_0.x1.sky130_fd_sc_hd__inv_2_16.A ringtest_0.x1.sky130_fd_sc_hd__inv_2_15.A VSS.t535 VSS.t513 sky130_fd_pr__nfet_01v8 ad=0.08775 pd=0.92 as=0.169 ps=1.82 w=0.65 l=0.15
X201 VSS.t532 ringtest_0.x3.x2.GN1 ringtest_0.x3.x2.GP1.t1 VSS.t531 sky130_fd_pr__nfet_01v8 ad=0.169 pd=1.82 as=0.08775 ps=0.92 w=0.65 l=0.15
X202 VDPWR.t127 ringtest_0.x4.net5 a_23381_4584# VDPWR.t126 sky130_fd_pr__pfet_01v8_hvt ad=0.16655 pd=1.39 as=0.0567 ps=0.69 w=0.42 l=0.15
X203 a_26555_5334# ringtest_0.x4._08_ VSS.t15 VSS.t14 sky130_fd_pr__nfet_01v8 ad=0.0813 pd=0.83 as=0.1092 ps=1.36 w=0.42 l=0.15
X204 ua[2].t5 muxtest_0.x2.x2.GP3 muxtest_0.R3R4.t3 VDPWR.t282 sky130_fd_pr__pfet_01v8_lvt ad=2.9 pd=20.58 as=2.9 ps=20.58 w=10 l=0.35
X205 a_16027_11759# ui_in[3].t1 VDPWR.t56 VDPWR.t55 sky130_fd_pr__pfet_01v8_hvt ad=0.0609 pd=0.71 as=0.2279 ps=1.74 w=0.42 l=0.15
X206 VDPWR.t205 a_22541_5058# a_22457_5156# VDPWR.t204 sky130_fd_pr__pfet_01v8_hvt ad=0.1113 pd=1.37 as=0.0882 ps=0.84 w=0.42 l=0.15
X207 ringtest_0.x4.clknet_1_1__leaf_clk.t12 a_25364_5878# VSS.t1087 VSS.t1086 sky130_fd_pr__nfet_01v8 ad=0.0588 pd=0.7 as=0.0588 ps=0.7 w=0.42 l=0.15
X208 ringtest_0.x1.sky130_fd_sc_hd__inv_2_6.A ringtest_0.x1.sky130_fd_sc_hd__inv_2_5.A VSS.t866 VSS.t176 sky130_fd_pr__nfet_01v8 ad=0.08775 pd=0.92 as=0.169 ps=1.82 w=0.65 l=0.15
X209 ringtest_0.x4._19_ a_23529_6422# VSS.t93 VSS.t92 sky130_fd_pr__nfet_01v8 ad=0.169 pd=1.82 as=0.1013 ps=0.99 w=0.65 l=0.15
X210 a_26569_6422# ringtest_0.x4._23_ VSS.t607 VSS.t606 sky130_fd_pr__nfet_01v8 ad=0.1092 pd=1.36 as=0.1092 ps=1.36 w=0.42 l=0.15
X211 a_24895_4790# a_24729_4790# VDPWR.t144 VDPWR.t80 sky130_fd_pr__pfet_01v8_hvt ad=0.1664 pd=1.8 as=0.0864 ps=0.91 w=0.64 l=0.15
X212 VDPWR.t313 ringtest_0.x1.sky130_fd_sc_hd__inv_2_15.A ringtest_0.x1.sky130_fd_sc_hd__inv_2_16.A VDPWR.t312 sky130_fd_pr__pfet_01v8_hvt ad=0.26 pd=2.52 as=0.135 ps=1.27 w=1 l=0.15
X213 ringtest_0.ring_out.t4 ringtest_0.x3.x2.GN1 ua[1].t9 VSS.t530 sky130_fd_pr__nfet_01v8_lvt ad=2.32 pd=16.58 as=2.32 ps=16.58 w=8 l=0.35
X214 ringtest_0.drv_out.t9 a_19289_13081.t4 VSS.t393 VSS.t392 sky130_fd_pr__nfet_01v8 ad=0.495 pd=3.33 as=0.495 ps=3.33 w=3 l=0.15
X215 a_23899_5334# ringtest_0.x4.net6.t5 VDPWR.t1026 VDPWR.t1025 sky130_fd_pr__pfet_01v8_hvt ad=0.165 pd=1.33 as=0.165 ps=1.33 w=1 l=0.15
X216 VDPWR.t706 VSS.t1145 VDPWR.t705 VDPWR.t704 sky130_fd_pr__pfet_01v8_hvt ad=0.2262 pd=2.26 as=0 ps=0 w=0.87 l=4.73