* NGSPICE file created from tt_um_patdeegan_anamux_parax.ext - technology: sky130A

.subckt tt_um_patdeegan_anamux_parax clk ena rst_n ua[4] ua[5] ua[6] ua[7] ui_in[7]
+ uio_in[0] uio_in[1] uio_in[2] uio_in[3] uio_in[4] uio_in[5] uio_in[6] uio_in[7]
+ uio_oe[0] uio_oe[1] uio_oe[2] uio_oe[3] uio_oe[4] uio_oe[5] uio_oe[6] uio_oe[7]
+ uio_out[0] uio_out[1] uio_out[2] uio_out[3] uio_out[4] uio_out[5] uio_out[6] uio_out[7]
+ uo_out[0] uo_out[1] uo_out[2] uo_out[3] uo_out[4] uo_out[5] uo_out[6] uo_out[7]
+ ui_in[5] ua[0] ua[3] ui_in[1] ua[1] ui_in[4] ui_in[2] ui_in[6] ui_in[0] ua[2] ui_in[3]
+ VDPWR VSS
X0 a_21007_3867# ringtest_0.x4.net2.t2 VSS.t701 VSS.t700 sky130_fd_pr__nfet_01v8 ad=0.1352 pd=1.56 as=0.0754 ps=0.81 w=0.52 l=0.15
X1 VSS.t445 VDPWR.t1166 VSS.t444 VSS.t443 sky130_fd_pr__nfet_01v8 ad=0.143 pd=1.62 as=0 ps=0 w=0.55 l=1.05
X2 VSS.t447 VDPWR.t1167 VSS.t446 VSS.t41 sky130_fd_pr__nfet_01v8 ad=0.143 pd=1.62 as=0 ps=0 w=0.55 l=0.59
X3 a_24527_5340# a_24361_5340# VSS.t663 VSS.t662 sky130_fd_pr__nfet_01v8 ad=0.1092 pd=1.36 as=0.0567 ps=0.69 w=0.42 l=0.15
X4 ua[2].t15 muxtest_0.x2.x2.GP1.t4 ua[3].t9 VDPWR.t535 sky130_fd_pr__pfet_01v8_lvt ad=2.9 pd=20.58 as=2.9 ps=20.58 w=10 l=0.35
X5 ringtest_0.x4.clknet_0_clk.t31 a_23879_6940# VSS.t1105 VSS.t1104 sky130_fd_pr__nfet_01v8 ad=0.0588 pd=0.7 as=0.0588 ps=0.7 w=0.42 l=0.15
X6 a_24135_3867# ringtest_0.x4.net6.t2 VDPWR.t250 VDPWR.t249 sky130_fd_pr__pfet_01v8_hvt ad=0.2054 pd=2.1 as=0.11455 ps=1.08 w=0.79 l=0.15
X7 VSS.t656 a_25364_5878# ringtest_0.x4.clknet_1_1__leaf_clk.t31 VSS.t655 sky130_fd_pr__nfet_01v8 ad=0.0588 pd=0.7 as=0.0588 ps=0.7 w=0.42 l=0.15
X8 VDPWR.t351 ui_in[1].t0 muxtest_0.x1.x1.nSEL1 VDPWR.t350 sky130_fd_pr__pfet_01v8_hvt ad=0.26 pd=2.52 as=0.135 ps=1.27 w=1 l=0.15
X9 a_22399_8976# a_21852_8720# a_22052_8875# VDPWR.t736 sky130_fd_pr__pfet_01v8_hvt ad=0.05775 pd=0.695 as=0.06825 ps=0.745 w=0.42 l=0.15
X10 muxtest_0.x1.x3.GP1.t1 muxtest_0.x1.x3.GN1 VDPWR.t345 VDPWR.t344 sky130_fd_pr__pfet_01v8_hvt ad=0.135 pd=1.27 as=0.26 ps=2.52 w=1 l=0.15
X11 a_27491_4566# ringtest_0.x4._23_ ringtest_0.x4._09_ VSS.t1114 sky130_fd_pr__nfet_01v8 ad=0.08775 pd=0.92 as=0.25025 ps=1.42 w=0.65 l=0.15
X12 VSS.t607 a_27065_5156# a_27233_5058# VSS.t606 sky130_fd_pr__nfet_01v8 ad=0.08775 pd=0.92 as=0.169 ps=1.82 w=0.65 l=0.15
X13 VDPWR.t771 ringtest_0.x4._05_ a_24883_6800# VDPWR.t770 sky130_fd_pr__pfet_01v8_hvt ad=0.1092 pd=1.36 as=0.05775 ps=0.695 w=0.42 l=0.15
X14 VDPWR.t698 a_16579_11759# ringtest_0.x3.x2.GN3 VDPWR.t697 sky130_fd_pr__pfet_01v8_hvt ad=0.2279 pd=1.74 as=0.26 ps=2.52 w=1 l=0.15
X15 VDPWR.t1159 VSS.t1127 VDPWR.t1158 VDPWR.t1157 sky130_fd_pr__pfet_01v8_hvt ad=0.2262 pd=2.26 as=0 ps=0 w=0.87 l=4.73
X16 a_25309_5334# a_24527_5340# a_25225_5334# VDPWR.t830 sky130_fd_pr__pfet_01v8_hvt ad=0.0882 pd=0.84 as=0.0567 ps=0.69 w=0.42 l=0.15
X17 a_12019_24012# muxtest_0.x2.x1.nSEL1 VSS.t309 VSS.t308 sky130_fd_pr__nfet_01v8 ad=0.0567 pd=0.69 as=0.1118 ps=1.04 w=0.42 l=0.15
X18 a_26913_4566# ringtest_0.x4._15_ a_26817_4566# VSS.t82 sky130_fd_pr__nfet_01v8 ad=0.104 pd=0.97 as=0.10725 ps=0.98 w=0.65 l=0.15
X19 VSS.t1022 ringtest_0.x4._21_ a_24545_5878# VSS.t1021 sky130_fd_pr__nfet_01v8 ad=0.0567 pd=0.69 as=0.1092 ps=1.36 w=0.42 l=0.15
X20 muxtest_0.x1.x3.GP4.t1 muxtest_0.x1.x3.GN4 VDPWR.t775 VDPWR.t774 sky130_fd_pr__pfet_01v8_hvt ad=0.135 pd=1.27 as=0.26 ps=2.52 w=1 l=0.15
X21 ringtest_0.x1.sky130_fd_sc_hd__inv_2_12.A ringtest_0.x1.sky130_fd_sc_hd__inv_2_11.A VDPWR.t784 VDPWR.t783 sky130_fd_pr__pfet_01v8_hvt ad=0.135 pd=1.27 as=0.26 ps=2.52 w=1 l=0.15
X22 VDPWR.t34 ringtest_0.x4._15_ a_25925_6788# VDPWR.t33 sky130_fd_pr__pfet_01v8_hvt ad=0.31245 pd=1.68 as=0.0588 ps=0.7 w=0.42 l=0.15
X23 a_24004_6128# ringtest_0.x4._17_ a_23932_6128# VDPWR.t821 sky130_fd_pr__pfet_01v8_hvt ad=0.165 pd=1.33 as=0.105 ps=1.21 w=1 l=0.15
X24 VSS.t450 VDPWR.t1168 VSS.t449 VSS.t448 sky130_fd_pr__nfet_01v8 ad=0.143 pd=1.62 as=0 ps=0 w=0.55 l=4.73
X25 a_23467_4818# ringtest_0.x4._11_.t4 a_23381_4818# VSS.t908 sky130_fd_pr__nfet_01v8 ad=0.0567 pd=0.69 as=0.1176 ps=1.4 w=0.42 l=0.15
X26 a_19114_31955# a_19290_32287# a_19242_32347# VSS.t988 sky130_fd_pr__nfet_01v8 ad=0.1092 pd=1.36 as=0.0504 ps=0.66 w=0.42 l=0.15
X27 VSS.t452 VDPWR.t1169 VSS.t451 VSS.t35 sky130_fd_pr__nfet_01v8 ad=0.143 pd=1.62 as=0 ps=0 w=0.55 l=0.59
X28 ringtest_0.x4.clknet_1_1__leaf_clk.t30 a_25364_5878# VSS.t654 VSS.t653 sky130_fd_pr__nfet_01v8 ad=0.0588 pd=0.7 as=0.0588 ps=0.7 w=0.42 l=0.15
X29 VDPWR.t1161 a_21375_3867# ringtest_0.x4.counter[1] VDPWR.t1160 sky130_fd_pr__pfet_01v8_hvt ad=0.11455 pd=1.08 as=0.2054 ps=2.1 w=0.79 l=0.15
X30 VDPWR.t750 ringtest_0.x4.net5 a_22486_4246# VDPWR.t749 sky130_fd_pr__pfet_01v8_hvt ad=0.28 pd=2.56 as=0.105 ps=1.21 w=1 l=0.15
X31 muxtest_0.x1.x1.nSEL0 ui_in[0].t0 VSS.t19 VSS.t18 sky130_fd_pr__nfet_01v8 ad=0.08775 pd=0.92 as=0.169 ps=1.82 w=0.65 l=0.15
X32 VDPWR.t239 a_19842_32287# a_19666_31955# VDPWR.t238 sky130_fd_pr__pfet_01v8_hvt ad=0.0714 pd=0.76 as=0.0609 ps=0.71 w=0.42 l=0.15
X33 muxtest_0.R3R4.t7 muxtest_0.x2.x2.GN3 ua[2].t9 VSS.t684 sky130_fd_pr__nfet_01v8_lvt ad=2.32 pd=16.58 as=2.32 ps=16.58 w=8 l=0.35
X34 VDPWR.t1156 VSS.t1128 VDPWR.t1155 VDPWR.t1154 sky130_fd_pr__pfet_01v8_hvt ad=0.2262 pd=2.26 as=0 ps=0 w=0.87 l=4.73
X35 a_12473_23980# ui_in[4].t0 VDPWR.t417 VDPWR.t416 sky130_fd_pr__pfet_01v8_hvt ad=0.1092 pd=1.36 as=0.0714 ps=0.76 w=0.42 l=0.15
X36 muxtest_0.x1.x4.A muxtest_0.x1.x3.GP3 muxtest_0.R1R2.t3 VDPWR.t714 sky130_fd_pr__pfet_01v8_lvt ad=2.9 pd=20.58 as=2.9 ps=20.58 w=10 l=0.35
X37 a_16579_11759# a_16755_12091# a_16707_12151# VSS.t904 sky130_fd_pr__nfet_01v8 ad=0.1092 pd=1.36 as=0.0504 ps=0.66 w=0.42 l=0.15
X38 VDPWR.t36 a_13501_23906# muxtest_0.x2.x2.GN4 VDPWR.t35 sky130_fd_pr__pfet_01v8_hvt ad=0.16655 pd=1.39 as=0.475 ps=2.95 w=1 l=0.15
X39 VDPWR.t716 a_19289_13081.t2 ringtest_0.drv_out.t8 VDPWR.t715 sky130_fd_pr__pfet_01v8 ad=1.485 pd=9.33 as=1.485 ps=9.33 w=9 l=0.15
X40 VSS.t3 a_21465_9294# ringtest_0.x4.net2.t0 VSS.t2 sky130_fd_pr__nfet_01v8 ad=0.08775 pd=0.92 as=0.169 ps=1.82 w=0.65 l=0.15
X41 ringtest_0.x4.clknet_0_clk.t15 a_23879_6940# VDPWR.t818 VDPWR.t817 sky130_fd_pr__pfet_01v8_hvt ad=0.14 pd=1.28 as=0.14 ps=1.28 w=1 l=0.15
X42 VDPWR.t680 a_22021_4220# ringtest_0.x4._03_ VDPWR.t679 sky130_fd_pr__pfet_01v8_hvt ad=0.18575 pd=1.415 as=0.26 ps=2.52 w=1 l=0.15
X43 VSS.t1031 ringtest_0.x4.net5 a_23467_4584# VSS.t77 sky130_fd_pr__nfet_01v8 ad=0.1118 pd=1.04 as=0.0567 ps=0.69 w=0.42 l=0.15
X44 muxtest_0.x2.nselect2 VDPWR.t708 VDPWR.t710 VDPWR.t709 sky130_fd_pr__pfet_01v8_hvt ad=0.135 pd=1.27 as=0.26 ps=2.52 w=1 l=0.15
X45 a_16707_12151# ui_in[4].t1 VSS.t665 VSS.t664 sky130_fd_pr__nfet_01v8 ad=0.0504 pd=0.66 as=0.1013 ps=0.99 w=0.42 l=0.15
X46 VSS.t455 VDPWR.t1170 VSS.t454 VSS.t453 sky130_fd_pr__nfet_01v8 ad=0.143 pd=1.62 as=0 ps=0 w=0.55 l=4.73
X47 VDPWR.t1153 VSS.t1129 VDPWR.t1152 VDPWR.t1018 sky130_fd_pr__pfet_01v8_hvt ad=0.2262 pd=2.26 as=0 ps=0 w=0.87 l=1.05
X48 ringtest_0.x4._15_ a_23381_4584# VSS.t1047 VSS.t496 sky130_fd_pr__nfet_01v8 ad=0.182 pd=1.86 as=0.1118 ps=1.04 w=0.65 l=0.15
X49 a_23899_5334# ringtest_0.x4._15_ VDPWR.t32 VDPWR.t31 sky130_fd_pr__pfet_01v8_hvt ad=0.16 pd=1.32 as=0.1725 ps=1.345 w=1 l=0.15
X50 VDPWR.t366 a_27065_5156# a_27233_5058# VDPWR.t332 sky130_fd_pr__pfet_01v8_hvt ad=0.135 pd=1.27 as=0.27 ps=2.54 w=1 l=0.15
X51 muxtest_0.x1.x3.GP3 muxtest_0.x1.x3.GN3 VDPWR.t759 VDPWR.t758 sky130_fd_pr__pfet_01v8_hvt ad=0.135 pd=1.27 as=0.26 ps=2.52 w=1 l=0.15
X52 VSS.t458 VDPWR.t1171 VSS.t457 VSS.t456 sky130_fd_pr__nfet_01v8 ad=0.143 pd=1.62 as=0 ps=0 w=0.55 l=2.89
X53 VSS.t711 ringtest_0.x4.net3.t2 ringtest_0.x4._12_ VSS.t710 sky130_fd_pr__nfet_01v8 ad=0.17225 pd=1.83 as=0.091 ps=0.93 w=0.65 l=0.15
X54 VSS.t1046 a_25975_3867# ringtest_0.x4.counter[6] VSS.t1045 sky130_fd_pr__nfet_01v8 ad=0.0754 pd=0.81 as=0.1352 ps=1.56 w=0.52 l=0.15
X55 a_24329_6640# ringtest_0.x4.clknet_1_1__leaf_clk.t32 VDPWR.t538 VDPWR.t537 sky130_fd_pr__pfet_01v8_hvt ad=0.1664 pd=1.8 as=0.0864 ps=0.91 w=0.64 l=0.15
X56 muxtest_0.x1.x5.A ui_in[2].t0 ua[3].t10 VDPWR.t362 sky130_fd_pr__pfet_01v8_lvt ad=2.9 pd=20.58 as=2.9 ps=20.58 w=10 l=0.35
X57 ua[1].t5 ringtest_0.x3.x2.GP4.t4 ringtest_0.counter7.t5 VDPWR.t363 sky130_fd_pr__pfet_01v8_lvt ad=2.9 pd=20.58 as=2.9 ps=20.58 w=10 l=0.35
X58 a_22392_5990# a_22224_6244# VDPWR.t70 VDPWR.t69 sky130_fd_pr__pfet_01v8_hvt ad=0.1095 pd=1.075 as=0.178875 ps=1.26 w=0.75 l=0.15
X59 ringtest_0.x4.clknet_1_0__leaf_clk.t15 a_21395_6940# VDPWR.t318 VDPWR.t317 sky130_fd_pr__pfet_01v8_hvt ad=0.14 pd=1.28 as=0.14 ps=1.28 w=1 l=0.15
X60 VSS.t825 ringtest_0.x4._22_ a_26913_4566# VSS.t824 sky130_fd_pr__nfet_01v8 ad=0.112125 pd=0.995 as=0.104 ps=0.97 w=0.65 l=0.15
X61 a_26640_5334# a_26367_5340# a_26555_5334# VDPWR.t160 sky130_fd_pr__pfet_01v8_hvt ad=0.06825 pd=0.745 as=0.05775 ps=0.695 w=0.42 l=0.15
X62 ringtest_0.x4.clknet_1_1__leaf_clk.t15 a_25364_5878# VDPWR.t409 VDPWR.t408 sky130_fd_pr__pfet_01v8_hvt ad=0.14 pd=1.28 as=0.14 ps=1.28 w=1 l=0.15
X63 VDPWR.t1151 VSS.t1130 VDPWR.t1150 VDPWR.t1149 sky130_fd_pr__pfet_01v8_hvt ad=0.2262 pd=2.26 as=0 ps=0 w=0.87 l=1.05
X64 VSS.t461 VDPWR.t1172 VSS.t460 VSS.t459 sky130_fd_pr__nfet_01v8 ad=0.143 pd=1.62 as=0 ps=0 w=0.55 l=4.73
X65 a_21785_8054# ringtest_0.x4.net3.t3 VDPWR.t455 VDPWR.t454 sky130_fd_pr__pfet_01v8_hvt ad=0.06615 pd=0.735 as=0.0567 ps=0.69 w=0.42 l=0.15
X66 ringtest_0.x4._17_ a_25925_6788# VSS.t1049 VSS.t1048 sky130_fd_pr__nfet_01v8 ad=0.169 pd=1.82 as=0.196275 ps=1.33 w=0.65 l=0.15
X67 VSS.t583 a_19114_31955# muxtest_0.x1.x3.GN2 VSS.t582 sky130_fd_pr__nfet_01v8 ad=0.1013 pd=0.99 as=0.169 ps=1.82 w=0.65 l=0.15
X68 VDPWR.t138 ringtest_0.x1.sky130_fd_sc_hd__inv_2_7.A ringtest_0.x1.sky130_fd_sc_hd__inv_2_7.Y VDPWR.t137 sky130_fd_pr__pfet_01v8_hvt ad=0.26 pd=2.52 as=0.135 ps=1.27 w=1 l=0.15
X69 VDPWR.t707 VDPWR.t705 ringtest_0.x3.nselect2 VDPWR.t706 sky130_fd_pr__pfet_01v8_hvt ad=0.26 pd=2.52 as=0.135 ps=1.27 w=1 l=0.15
X70 VDPWR.t816 a_23879_6940# ringtest_0.x4.clknet_0_clk.t14 VDPWR.t815 sky130_fd_pr__pfet_01v8_hvt ad=0.14 pd=1.28 as=0.14 ps=1.28 w=1 l=0.15
X71 VSS.t910 ringtest_0.x4.net4 ringtest_0.x4._13_ VSS.t909 sky130_fd_pr__nfet_01v8 ad=0.169 pd=1.82 as=0.08775 ps=0.92 w=0.65 l=0.15
X72 a_24317_4942# ringtest_0.x4.net6.t3 a_24551_4790# VSS.t442 sky130_fd_pr__nfet_01v8 ad=0.1092 pd=1.36 as=0.0441 ps=0.63 w=0.42 l=0.15
X73 VSS.t790 ringtest_0.x4.clknet_0_clk.t32 a_25364_5878# VSS.t789 sky130_fd_pr__nfet_01v8 ad=0.0588 pd=0.7 as=0.0588 ps=0.7 w=0.42 l=0.15
X74 VSS.t396 a_22111_10993# ringtest_0.x4.net1 VSS.t395 sky130_fd_pr__nfet_01v8 ad=0.0754 pd=0.81 as=0.1352 ps=1.56 w=0.52 l=0.15
X75 VSS.t464 VDPWR.t1173 VSS.t463 VSS.t462 sky130_fd_pr__nfet_01v8 ad=0.143 pd=1.62 as=0 ps=0 w=0.55 l=4.73
X76 VDPWR.t353 a_27815_3867# ringtest_0.x4.counter[8] VDPWR.t352 sky130_fd_pr__pfet_01v8_hvt ad=0.11455 pd=1.08 as=0.2054 ps=2.1 w=0.79 l=0.15
X77 ringtest_0.x4._00_ a_21425_9686# a_21675_9686# VDPWR.t10 sky130_fd_pr__pfet_01v8_hvt ad=0.3 pd=2.6 as=0.26 ps=2.52 w=1 l=0.15
X78 VDPWR.t1148 VSS.t1131 VDPWR.t1147 VDPWR.t1007 sky130_fd_pr__pfet_01v8_hvt ad=0.2262 pd=2.26 as=0 ps=0 w=0.87 l=0.59
X79 VDPWR.t1146 VSS.t1132 VDPWR.t1145 VDPWR.t1144 sky130_fd_pr__pfet_01v8_hvt ad=0.2262 pd=2.26 as=0 ps=0 w=0.87 l=1.05
X80 VDPWR.t215 ringtest_0.x1.sky130_fd_sc_hd__inv_2_2.A ringtest_0.x1.sky130_fd_sc_hd__inv_2_3.A VDPWR.t214 sky130_fd_pr__pfet_01v8_hvt ad=0.26 pd=2.52 as=0.135 ps=1.27 w=1 l=0.15
X81 VDPWR.t282 ringtest_0.x4._00_ a_22399_9142# VDPWR.t281 sky130_fd_pr__pfet_01v8_hvt ad=0.1092 pd=1.36 as=0.05775 ps=0.695 w=0.42 l=0.15
X82 VSS.t1103 a_23879_6940# ringtest_0.x4.clknet_0_clk.t30 VSS.t1102 sky130_fd_pr__nfet_01v8 ad=0.0588 pd=0.7 as=0.0588 ps=0.7 w=0.42 l=0.15
X83 a_21675_4790# a_21509_4790# VSS.t747 VSS.t746 sky130_fd_pr__nfet_01v8 ad=0.1092 pd=1.36 as=0.0567 ps=0.69 w=0.42 l=0.15
X84 VSS.t299 ui_in[0].t1 a_19842_32287# VSS.t298 sky130_fd_pr__nfet_01v8 ad=0.1092 pd=1.36 as=0.1092 ps=1.36 w=0.42 l=0.15
X85 VSS.t467 VDPWR.t1174 VSS.t466 VSS.t465 sky130_fd_pr__nfet_01v8 ad=0.143 pd=1.62 as=0 ps=0 w=0.55 l=4.73
X86 VDPWR.t316 a_21395_6940# ringtest_0.x4.clknet_1_0__leaf_clk.t14 VDPWR.t315 sky130_fd_pr__pfet_01v8_hvt ad=0.14 pd=1.28 as=0.14 ps=1.28 w=1 l=0.15
X87 VSS.t73 a_23399_3867# ringtest_0.counter3.t1 VSS.t72 sky130_fd_pr__nfet_01v8 ad=0.0754 pd=0.81 as=0.1352 ps=1.56 w=0.52 l=0.15
X88 VDPWR.t119 a_18662_32213# muxtest_0.x1.x3.GN1 VDPWR.t118 sky130_fd_pr__pfet_01v8_hvt ad=0.16655 pd=1.39 as=0.475 ps=2.95 w=1 l=0.15
X89 VDPWR.t445 ringtest_0.x4.net2.t3 a_21507_9686# VDPWR.t444 sky130_fd_pr__pfet_01v8_hvt ad=0.135 pd=1.27 as=0.135 ps=1.27 w=1 l=0.15
X90 VDPWR.t1143 VSS.t1133 VDPWR.t1142 VDPWR.t1141 sky130_fd_pr__pfet_01v8_hvt ad=0.2262 pd=2.26 as=0 ps=0 w=0.87 l=4.73
X91 a_27659_4246# ringtest_0.x4.net11 VDPWR.t377 VDPWR.t168 sky130_fd_pr__pfet_01v8_hvt ad=0.135 pd=1.27 as=0.135 ps=1.27 w=1 l=0.15
X92 a_22390_4566# ringtest_0.x4.net5 VSS.t1030 VSS.t1029 sky130_fd_pr__nfet_01v8 ad=0.17225 pd=1.83 as=0.08775 ps=0.92 w=0.65 l=0.15
X93 ringtest_0.x3.x1.nSEL1 ui_in[4].t2 VSS.t667 VSS.t666 sky130_fd_pr__nfet_01v8 ad=0.08775 pd=0.92 as=0.169 ps=1.82 w=0.65 l=0.15
X94 ringtest_0.x4.clknet_1_0__leaf_clk.t31 a_21395_6940# VSS.t557 VSS.t556 sky130_fd_pr__nfet_01v8 ad=0.0588 pd=0.7 as=0.0588 ps=0.7 w=0.42 l=0.15
X95 a_22649_6244# a_21785_5878# a_22392_5990# VDPWR.t564 sky130_fd_pr__pfet_01v8_hvt ad=0.0567 pd=0.69 as=0.1095 ps=1.075 w=0.42 l=0.15
X96 muxtest_0.x1.x3.GP2.t1 muxtest_0.x1.x3.GN2 VDPWR.t134 VDPWR.t133 sky130_fd_pr__pfet_01v8_hvt ad=0.135 pd=1.27 as=0.26 ps=2.52 w=1 l=0.15
X97 ua[3].t11 ui_in[2].t1 muxtest_0.x1.x4.A VSS.t604 sky130_fd_pr__nfet_01v8_lvt ad=2.32 pd=16.58 as=2.32 ps=16.58 w=8 l=0.35
X98 muxtest_0.R5R6.t5 muxtest_0.x1.x3.GN3 muxtest_0.x1.x5.A VSS.t1042 sky130_fd_pr__nfet_01v8_lvt ad=2.32 pd=16.58 as=2.32 ps=16.58 w=8 l=0.35
X99 VSS.t431 a_24329_6640# a_24336_6544# VSS.t430 sky130_fd_pr__nfet_01v8 ad=0.0567 pd=0.69 as=0.1092 ps=1.36 w=0.42 l=0.15
X100 a_27303_4246# a_27273_4220# ringtest_0.x4._09_ VDPWR.t431 sky130_fd_pr__pfet_01v8_hvt ad=0.26 pd=2.52 as=0.3 ps=2.6 w=1 l=0.15
X101 VDPWR.t1140 VSS.t1134 VDPWR.t1139 VDPWR.t1138 sky130_fd_pr__pfet_01v8_hvt ad=0.2262 pd=2.26 as=0 ps=0 w=0.87 l=1.05
X102 ringtest_0.x4.clknet_1_0__leaf_clk.t13 a_21395_6940# VDPWR.t314 VDPWR.t313 sky130_fd_pr__pfet_01v8_hvt ad=0.14 pd=1.28 as=0.265 ps=2.53 w=1 l=0.15
X103 VSS.t699 ringtest_0.x4.net2.t4 a_21425_9686# VSS.t698 sky130_fd_pr__nfet_01v8 ad=0.08775 pd=0.92 as=0.08775 ps=0.92 w=0.65 l=0.15
X104 a_19666_31955# a_19842_32287# a_19794_32347# VSS.t432 sky130_fd_pr__nfet_01v8 ad=0.1092 pd=1.36 as=0.0504 ps=0.66 w=0.42 l=0.15
X105 muxtest_0.R3R4.t5 muxtest_0.x1.x3.GN1 muxtest_0.x1.x4.A VSS.t591 sky130_fd_pr__nfet_01v8_lvt ad=2.32 pd=16.58 as=2.32 ps=16.58 w=8 l=0.35
X106 VDPWR.t357 ringtest_0.x1.sky130_fd_sc_hd__inv_2_5.A ringtest_0.x1.sky130_fd_sc_hd__inv_2_6.A VDPWR.t356 sky130_fd_pr__pfet_01v8_hvt ad=0.26 pd=2.52 as=0.135 ps=1.27 w=1 l=0.15
X107 a_21845_8816# ringtest_0.x4.clknet_1_0__leaf_clk.t32 VDPWR.t87 VDPWR.t86 sky130_fd_pr__pfet_01v8_hvt ad=0.1664 pd=1.8 as=0.0864 ps=0.91 w=0.64 l=0.15
X108 VSS.t555 a_21395_6940# ringtest_0.x4.clknet_1_0__leaf_clk.t30 VSS.t554 sky130_fd_pr__nfet_01v8 ad=0.0588 pd=0.7 as=0.0588 ps=0.7 w=0.42 l=0.15
X109 a_21672_5334# a_21399_5340# a_21587_5334# VDPWR.t121 sky130_fd_pr__pfet_01v8_hvt ad=0.06825 pd=0.745 as=0.05775 ps=0.695 w=0.42 l=0.15
X110 ringtest_0.x4.clknet_1_1__leaf_clk.t14 a_25364_5878# VDPWR.t407 VDPWR.t406 sky130_fd_pr__pfet_01v8_hvt ad=0.14 pd=1.28 as=0.14 ps=1.28 w=1 l=0.15
X111 VDPWR.t1137 VSS.t1135 VDPWR.t1136 VDPWR.t1135 sky130_fd_pr__pfet_01v8_hvt ad=0.2262 pd=2.26 as=0 ps=0 w=0.87 l=0.59
X112 a_18662_32213# muxtest_0.x1.x1.nSEL0 a_18836_32319# VSS.t85 sky130_fd_pr__nfet_01v8 ad=0.1176 pd=1.4 as=0.0567 ps=0.69 w=0.42 l=0.15
X113 a_16203_12091# ui_in[4].t3 VDPWR.t419 VDPWR.t418 sky130_fd_pr__pfet_01v8_hvt ad=0.1092 pd=1.36 as=0.0714 ps=0.76 w=0.42 l=0.15
X114 a_19794_32347# ui_in[1].t1 VSS.t688 VSS.t687 sky130_fd_pr__nfet_01v8 ad=0.0504 pd=0.66 as=0.1013 ps=0.99 w=0.42 l=0.15
X115 VDPWR.t1134 VSS.t1136 VDPWR.t1133 VDPWR.t1132 sky130_fd_pr__pfet_01v8_hvt ad=0.2262 pd=2.26 as=0 ps=0 w=0.87 l=1.05
X116 VDPWR.t93 a_22817_6146# a_22733_6244# VDPWR.t92 sky130_fd_pr__pfet_01v8_hvt ad=0.1113 pd=1.37 as=0.0882 ps=0.84 w=0.42 l=0.15
X117 VDPWR.t144 a_17231_12017# ringtest_0.x3.x2.GN4 VDPWR.t143 sky130_fd_pr__pfet_01v8_hvt ad=0.16655 pd=1.39 as=0.475 ps=2.95 w=1 l=0.15
X118 VDPWR.t814 a_23879_6940# ringtest_0.x4.clknet_0_clk.t13 VDPWR.t813 sky130_fd_pr__pfet_01v8_hvt ad=0.14 pd=1.28 as=0.14 ps=1.28 w=1 l=0.15
X119 VSS.t652 a_25364_5878# ringtest_0.x4.clknet_1_1__leaf_clk.t29 VSS.t651 sky130_fd_pr__nfet_01v8 ad=0.0588 pd=0.7 as=0.0588 ps=0.7 w=0.42 l=0.15
X120 ringtest_0.x3.nselect2 VDPWR.t702 VDPWR.t704 VDPWR.t703 sky130_fd_pr__pfet_01v8_hvt ad=0.135 pd=1.27 as=0.26 ps=2.52 w=1 l=0.15
X121 a_25925_6788# ringtest_0.x4.net6.t4 VDPWR.t726 VDPWR.t725 sky130_fd_pr__pfet_01v8_hvt ad=0.0735 pd=0.77 as=0.1092 ps=1.36 w=0.42 l=0.15
X122 a_25975_3867# ringtest_0.x4.net8 VDPWR.t84 VDPWR.t83 sky130_fd_pr__pfet_01v8_hvt ad=0.2054 pd=2.1 as=0.11455 ps=1.08 w=0.79 l=0.15
X123 ringtest_0.x4.net10 a_27233_5308# VDPWR.t125 VDPWR.t124 sky130_fd_pr__pfet_01v8_hvt ad=0.26 pd=2.52 as=0.135 ps=1.27 w=1 l=0.15
X124 a_11845_23906# muxtest_0.x2.x1.nSEL1 VDPWR.t117 VDPWR.t116 sky130_fd_pr__pfet_01v8_hvt ad=0.0567 pd=0.69 as=0.16655 ps=1.39 w=0.42 l=0.15
X125 ringtest_0.x1.sky130_fd_sc_hd__inv_2_5.A ringtest_0.x1.sky130_fd_sc_hd__inv_2_4.A VSS.t757 VSS.t756 sky130_fd_pr__nfet_01v8 ad=0.08775 pd=0.92 as=0.169 ps=1.82 w=0.65 l=0.15
X126 VDPWR.t551 ringtest_0.x1.sky130_fd_sc_hd__inv_2_16.A ringtest_0.x1.sky130_fd_sc_hd__inv_2_17.A VDPWR.t550 sky130_fd_pr__pfet_01v8_hvt ad=0.26 pd=2.52 as=0.135 ps=1.27 w=1 l=0.15
X127 a_21939_8054# ringtest_0.x4.net3.t4 a_21867_8054# VSS.t712 sky130_fd_pr__nfet_01v8 ad=0.0441 pd=0.63 as=0.0441 ps=0.63 w=0.42 l=0.15
X128 a_26721_4246# ringtest_0.x4.net10 a_26627_4246# VDPWR.t130 sky130_fd_pr__pfet_01v8_hvt ad=0.165 pd=1.33 as=0.32 ps=2.64 w=1 l=0.15
X129 a_22116_4902# a_21948_5156# VSS.t292 VSS.t291 sky130_fd_pr__nfet_01v8 ad=0.0989 pd=0.995 as=0.12095 ps=1.085 w=0.64 l=0.15
X130 VDPWR.t312 a_21395_6940# ringtest_0.x4.clknet_1_0__leaf_clk.t12 VDPWR.t311 sky130_fd_pr__pfet_01v8_hvt ad=0.1375 pd=1.275 as=0.14 ps=1.28 w=1 l=0.15
X131 a_25149_4220# ringtest_0.x4.net7 VDPWR.t671 VDPWR.t670 sky130_fd_pr__pfet_01v8_hvt ad=0.0735 pd=0.77 as=0.0777 ps=0.79 w=0.42 l=0.15
X132 VDPWR.t546 a_21840_5308# a_21767_5334# VDPWR.t545 sky130_fd_pr__pfet_01v8_hvt ad=0.178875 pd=1.26 as=0.07665 ps=0.785 w=0.42 l=0.15
X133 VSS.t470 VDPWR.t1175 VSS.t469 VSS.t468 sky130_fd_pr__nfet_01v8 ad=0.143 pd=1.62 as=0 ps=0 w=0.55 l=4.73
X134 VSS.t473 VDPWR.t1176 VSS.t472 VSS.t471 sky130_fd_pr__nfet_01v8 ad=0.143 pd=1.62 as=0 ps=0 w=0.55 l=1.05
X135 VDPWR.t585 ringtest_0.x1.sky130_fd_sc_hd__inv_2_7.Y ringtest_0.x1.sky130_fd_sc_hd__inv_2_9.A VDPWR.t584 sky130_fd_pr__pfet_01v8_hvt ad=0.26 pd=2.52 as=0.135 ps=1.27 w=1 l=0.15
X136 VDPWR.t1131 VSS.t1137 VDPWR.t1130 VDPWR.t1129 sky130_fd_pr__pfet_01v8_hvt ad=0.2262 pd=2.26 as=0 ps=0 w=0.87 l=1.05
X137 a_24627_6200# ringtest_0.x4._21_ VDPWR.t734 VDPWR.t733 sky130_fd_pr__pfet_01v8_hvt ad=0.0441 pd=0.63 as=0.1092 ps=1.36 w=0.42 l=0.15
X138 VSS.t130 ringtest_0.x4._16_.t2 a_24986_5878# VSS.t129 sky130_fd_pr__nfet_01v8 ad=0.098625 pd=0.98 as=0.06615 ps=0.735 w=0.42 l=0.15
X139 VSS.t476 VDPWR.t1177 VSS.t475 VSS.t474 sky130_fd_pr__nfet_01v8 ad=0.143 pd=1.62 as=0 ps=0 w=0.55 l=4.73
X140 VDPWR.t14 a_22245_8054# ringtest_0.x4._11_.t1 VDPWR.t13 sky130_fd_pr__pfet_01v8_hvt ad=0.26 pd=2.52 as=0.135 ps=1.27 w=1 l=0.15
X141 a_25977_4220# ringtest_0.x4._11_.t5 VDPWR.t487 VDPWR.t486 sky130_fd_pr__pfet_01v8_hvt ad=0.0735 pd=0.77 as=0.0777 ps=0.79 w=0.42 l=0.15
X142 VSS.t479 VDPWR.t1178 VSS.t478 VSS.t477 sky130_fd_pr__nfet_01v8 ad=0.143 pd=1.62 as=0 ps=0 w=0.55 l=4.73
X143 a_26367_4790# a_26201_4790# VSS.t436 VSS.t435 sky130_fd_pr__nfet_01v8 ad=0.1092 pd=1.36 as=0.0567 ps=0.69 w=0.42 l=0.15
X144 VDPWR.t1128 VSS.t1138 VDPWR.t1127 VDPWR.t1029 sky130_fd_pr__pfet_01v8_hvt ad=0.2262 pd=2.26 as=0 ps=0 w=0.87 l=0.59
X145 a_25677_5156# a_24895_4790# a_25593_5156# VDPWR.t140 sky130_fd_pr__pfet_01v8_hvt ad=0.0882 pd=0.84 as=0.0567 ps=0.69 w=0.42 l=0.15
X146 VDPWR.t820 ringtest_0.x4._17_ a_23349_6422# VDPWR.t819 sky130_fd_pr__pfet_01v8_hvt ad=0.0714 pd=0.76 as=0.1092 ps=1.36 w=0.42 l=0.15
X147 VDPWR.t30 ringtest_0.x4._15_ a_25977_4220# VDPWR.t29 sky130_fd_pr__pfet_01v8_hvt ad=0.0777 pd=0.79 as=0.0588 ps=0.7 w=0.42 l=0.15
X148 VDPWR.t1126 VSS.t1139 VDPWR.t1125 VDPWR.t903 sky130_fd_pr__pfet_01v8_hvt ad=0.2262 pd=2.26 as=0 ps=0 w=0.87 l=1.05
X149 VDPWR.t534 muxtest_0.x2.x2.GN2 muxtest_0.x2.x2.GP2.t1 VDPWR.t533 sky130_fd_pr__pfet_01v8_hvt ad=0.26 pd=2.52 as=0.135 ps=1.27 w=1 l=0.15
X150 VDPWR.t570 a_24070_5852# a_24004_6128# VDPWR.t569 sky130_fd_pr__pfet_01v8_hvt ad=0.3 pd=2.6 as=0.165 ps=1.33 w=1 l=0.15
X151 muxtest_0.x1.x5.A muxtest_0.x1.x3.GP2.t4 muxtest_0.R6R7.t3 VDPWR.t49 sky130_fd_pr__pfet_01v8_lvt ad=2.9 pd=20.58 as=2.9 ps=20.58 w=10 l=0.35
X152 ua[0].t4 muxtest_0.x2.x2.GN2 ua[2].t11 VSS.t767 sky130_fd_pr__nfet_01v8_lvt ad=2.32 pd=16.58 as=2.32 ps=16.58 w=8 l=0.35
X153 VSS.t848 a_25977_4220# ringtest_0.x4._23_ VSS.t847 sky130_fd_pr__nfet_01v8 ad=0.196275 pd=1.33 as=0.169 ps=1.82 w=0.65 l=0.15
X154 VDPWR.t1124 VSS.t1140 VDPWR.t1123 VDPWR.t1122 sky130_fd_pr__pfet_01v8_hvt ad=0.2262 pd=2.26 as=0 ps=0 w=0.87 l=2.89
X155 VDPWR.t1121 VSS.t1141 VDPWR.t1120 VDPWR.t1119 sky130_fd_pr__pfet_01v8_hvt ad=0.2262 pd=2.26 as=0 ps=0 w=0.87 l=4.73
X156 ringtest_0.x1.sky130_fd_sc_hd__inv_2_7.Y ringtest_0.x1.sky130_fd_sc_hd__inv_2_7.A VSS.t334 VSS.t333 sky130_fd_pr__nfet_01v8 ad=0.08775 pd=0.92 as=0.169 ps=1.82 w=0.65 l=0.15
X157 VDPWR.t324 ringtest_0.x1.sky130_fd_sc_hd__inv_2_13.A ringtest_0.x1.sky130_fd_sc_hd__inv_2_14.A VDPWR.t323 sky130_fd_pr__pfet_01v8_hvt ad=0.26 pd=2.52 as=0.135 ps=1.27 w=1 l=0.15
X158 a_21425_9686# ringtest_0.x4.net1 VSS.t403 VSS.t402 sky130_fd_pr__nfet_01v8 ad=0.08775 pd=0.92 as=0.169 ps=1.82 w=0.65 l=0.15
X159 VSS.t109 a_24317_4942# ringtest_0.x4._20_ VSS.t108 sky130_fd_pr__nfet_01v8 ad=0.13165 pd=1.14 as=0.169 ps=1.82 w=0.65 l=0.15
X160 muxtest_0.x1.x1.nSEL1 ui_in[1].t2 VDPWR.t433 VDPWR.t432 sky130_fd_pr__pfet_01v8_hvt ad=0.135 pd=1.27 as=0.26 ps=2.52 w=1 l=0.15
X161 a_21465_8830# a_21561_8830# VSS.t376 VSS.t375 sky130_fd_pr__nfet_01v8 ad=0.169 pd=1.82 as=0.08775 ps=0.92 w=0.65 l=0.15
X162 ringtest_0.x4.clknet_0_clk.t29 a_23879_6940# VSS.t1101 VSS.t1100 sky130_fd_pr__nfet_01v8 ad=0.0588 pd=0.7 as=0.0588 ps=0.7 w=0.42 l=0.15
X163 a_22295_3867# ringtest_0.x4.net4 VDPWR.t640 VDPWR.t639 sky130_fd_pr__pfet_01v8_hvt ad=0.2054 pd=2.1 as=0.11455 ps=1.08 w=0.79 l=0.15
X164 muxtest_0.R7R8.t9 muxtest_0.R6R7.t5 VSS.t419 sky130_fd_pr__res_high_po_1p41 l=1.75
X165 VDPWR.t1118 VSS.t1142 VDPWR.t1117 VDPWR.t1116 sky130_fd_pr__pfet_01v8_hvt ad=0.2262 pd=2.26 as=0 ps=0 w=0.87 l=1.05
X166 a_26808_4902# a_26640_5156# VDPWR.t271 VDPWR.t270 sky130_fd_pr__pfet_01v8_hvt ad=0.1095 pd=1.075 as=0.178875 ps=1.26 w=0.75 l=0.15
X167 VSS.t482 VDPWR.t1179 VSS.t481 VSS.t480 sky130_fd_pr__nfet_01v8 ad=0.143 pd=1.62 as=0 ps=0 w=0.55 l=0.59
X168 ringtest_0.x4.clknet_1_1__leaf_clk.t13 a_25364_5878# VDPWR.t405 VDPWR.t404 sky130_fd_pr__pfet_01v8_hvt ad=0.14 pd=1.28 as=0.14 ps=1.28 w=1 l=0.15
X169 VSS.t384 a_26808_5308# a_26766_5712# VSS.t383 sky130_fd_pr__nfet_01v8 ad=0.12095 pd=1.085 as=0.0696 ps=0.765 w=0.42 l=0.15
X170 a_25351_5712# a_24361_5340# a_25225_5334# VSS.t661 sky130_fd_pr__nfet_01v8 ad=0.066 pd=0.745 as=0.0684 ps=0.74 w=0.36 l=0.15
X171 VSS.t553 a_21395_6940# ringtest_0.x4.clknet_1_0__leaf_clk.t29 VSS.t552 sky130_fd_pr__nfet_01v8 ad=0.0588 pd=0.7 as=0.0588 ps=0.7 w=0.42 l=0.15
X172 VSS.t485 VDPWR.t1180 VSS.t484 VSS.t483 sky130_fd_pr__nfet_01v8 ad=0.143 pd=1.62 as=0 ps=0 w=0.55 l=0.59
X173 muxtest_0.R7R8.t4 muxtest_0.x2.x2.GN4 ua[2].t7 VSS.t425 sky130_fd_pr__nfet_01v8_lvt ad=2.32 pd=16.58 as=2.32 ps=16.58 w=8 l=0.35
X174 ringtest_0.x1.sky130_fd_sc_hd__inv_2_3.A ringtest_0.x1.sky130_fd_sc_hd__inv_2_2.A VSS.t407 VSS.t406 sky130_fd_pr__nfet_01v8 ad=0.08775 pd=0.92 as=0.169 ps=1.82 w=0.65 l=0.15
X175 VSS.t488 VDPWR.t1181 VSS.t487 VSS.t486 sky130_fd_pr__nfet_01v8 ad=0.143 pd=1.62 as=0 ps=0 w=0.55 l=1.05
X176 a_21007_3867# ringtest_0.x4.net2.t5 VDPWR.t443 VDPWR.t442 sky130_fd_pr__pfet_01v8_hvt ad=0.2054 pd=2.1 as=0.11455 ps=1.08 w=0.79 l=0.15
X177 ringtest_0.x4.net4 a_22265_5308# VDPWR.t196 VDPWR.t195 sky130_fd_pr__pfet_01v8_hvt ad=0.26 pd=2.52 as=0.135 ps=1.27 w=1 l=0.15
X178 VDPWR.t616 ringtest_0.x1.sky130_fd_sc_hd__inv_2_17.Y ringtest_0.x1.sky130_fd_sc_hd__inv_2_8.Y VDPWR.t615 sky130_fd_pr__pfet_01v8_hvt ad=0.26 pd=2.52 as=0.135 ps=1.27 w=1 l=0.15
X179 VSS.t1004 a_19289_13081.t3 ringtest_0.drv_out.t16 VSS.t1003 sky130_fd_pr__nfet_01v8 ad=0.495 pd=3.33 as=0.495 ps=3.33 w=3 l=0.15
X180 a_22373_5156# a_21509_4790# a_22116_4902# VDPWR.t510 sky130_fd_pr__pfet_01v8_hvt ad=0.0567 pd=0.69 as=0.1095 ps=1.075 w=0.42 l=0.15
X181 VDPWR.t1115 VSS.t1143 VDPWR.t1114 VDPWR.t970 sky130_fd_pr__pfet_01v8_hvt ad=0.2262 pd=2.26 as=0 ps=0 w=0.87 l=4.73
X182 a_26895_3867# ringtest_0.x4.net9 VSS.t364 VSS.t363 sky130_fd_pr__nfet_01v8 ad=0.1352 pd=1.56 as=0.0754 ps=0.81 w=0.52 l=0.15
X183 a_27191_4790# a_26201_4790# a_27065_5156# VSS.t434 sky130_fd_pr__nfet_01v8 ad=0.066 pd=0.745 as=0.0684 ps=0.74 w=0.36 l=0.15
X184 ringtest_0.x1.sky130_fd_sc_hd__inv_2_4.A ringtest_0.x1.sky130_fd_sc_hd__inv_2_3.A VDPWR.t219 VDPWR.t218 sky130_fd_pr__pfet_01v8_hvt ad=0.135 pd=1.27 as=0.26 ps=2.52 w=1 l=0.15
X185 VDPWR.t1113 VSS.t1144 VDPWR.t1112 VDPWR.t894 sky130_fd_pr__pfet_01v8_hvt ad=0.2262 pd=2.26 as=0 ps=0 w=0.87 l=0.59
X186 VSS.t491 VDPWR.t1182 VSS.t490 VSS.t489 sky130_fd_pr__nfet_01v8 ad=0.143 pd=1.62 as=0 ps=0 w=0.55 l=1.97
X187 a_22116_4902# a_21948_5156# VDPWR.t98 VDPWR.t97 sky130_fd_pr__pfet_01v8_hvt ad=0.1095 pd=1.075 as=0.178875 ps=1.26 w=0.75 l=0.15
X188 VSS.t124 ringtest_0.x4.net8 a_23837_5878# VSS.t123 sky130_fd_pr__nfet_01v8 ad=0.08775 pd=0.92 as=0.17225 ps=1.83 w=0.65 l=0.15
X189 VDPWR.t310 a_21395_6940# ringtest_0.x4.clknet_1_0__leaf_clk.t11 VDPWR.t309 sky130_fd_pr__pfet_01v8_hvt ad=0.14 pd=1.28 as=0.14 ps=1.28 w=1 l=0.15
X190 a_16755_12091# ui_in[3].t0 VDPWR.t648 VDPWR.t647 sky130_fd_pr__pfet_01v8_hvt ad=0.1092 pd=1.36 as=0.0714 ps=0.76 w=0.42 l=0.15
X191 VDPWR.t403 a_25364_5878# ringtest_0.x4.clknet_1_1__leaf_clk.t12 VDPWR.t402 sky130_fd_pr__pfet_01v8_hvt ad=0.1375 pd=1.275 as=0.14 ps=1.28 w=1 l=0.15
X192 VDPWR.t778 ringtest_0.x3.x2.GN3 ringtest_0.x3.x2.GP3 VDPWR.t19 sky130_fd_pr__pfet_01v8_hvt ad=0.26 pd=2.52 as=0.135 ps=1.27 w=1 l=0.15
X193 ringtest_0.x4.clknet_1_0__leaf_clk.t28 a_21395_6940# VSS.t551 VSS.t550 sky130_fd_pr__nfet_01v8 ad=0.0588 pd=0.7 as=0.0588 ps=0.7 w=0.42 l=0.15
X194 VSS.t22 VDPWR.t1183 VSS.t21 VSS.t20 sky130_fd_pr__nfet_01v8 ad=0.143 pd=1.62 as=0 ps=0 w=0.55 l=0.59
X195 VSS.t503 a_21007_3867# ringtest_0.x4.counter[0] VSS.t502 sky130_fd_pr__nfet_01v8 ad=0.0754 pd=0.81 as=0.1352 ps=1.56 w=0.52 l=0.15
X196 a_22181_5334# a_21399_5340# a_22097_5334# VDPWR.t120 sky130_fd_pr__pfet_01v8_hvt ad=0.0882 pd=0.84 as=0.0567 ps=0.69 w=0.42 l=0.15
X197 a_20318_32213# ui_in[1].t3 a_20492_32319# VSS.t689 sky130_fd_pr__nfet_01v8 ad=0.1176 pd=1.4 as=0.0567 ps=0.69 w=0.42 l=0.15
X198 VSS.t521 ringtest_0.x4._00_ a_22399_9142# VSS.t520 sky130_fd_pr__nfet_01v8 ad=0.1092 pd=1.36 as=0.0813 ps=0.83 w=0.42 l=0.15
X199 a_22224_6244# a_21951_5878# a_22139_5878# VDPWR.t514 sky130_fd_pr__pfet_01v8_hvt ad=0.06825 pd=0.745 as=0.05775 ps=0.695 w=0.42 l=0.15
X200 ringtest_0.x1.sky130_fd_sc_hd__inv_2_16.A ringtest_0.x1.sky130_fd_sc_hd__inv_2_15.A VSS.t761 VSS.t756 sky130_fd_pr__nfet_01v8 ad=0.08775 pd=0.92 as=0.169 ps=1.82 w=0.65 l=0.15
X201 VSS.t840 ringtest_0.x3.x2.GN1 ringtest_0.x3.x2.GP1.t3 VSS.t839 sky130_fd_pr__nfet_01v8 ad=0.169 pd=1.82 as=0.08775 ps=0.92 w=0.65 l=0.15
X202 VDPWR.t748 ringtest_0.x4.net5 a_23381_4584# VDPWR.t747 sky130_fd_pr__pfet_01v8_hvt ad=0.16655 pd=1.39 as=0.0567 ps=0.69 w=0.42 l=0.15
X203 a_26555_5334# ringtest_0.x4._08_ VSS.t350 VSS.t349 sky130_fd_pr__nfet_01v8 ad=0.0813 pd=0.83 as=0.1092 ps=1.36 w=0.42 l=0.15
X204 ua[2].t3 muxtest_0.x2.x2.GP3 muxtest_0.R3R4.t1 VDPWR.t76 sky130_fd_pr__pfet_01v8_lvt ad=2.9 pd=20.58 as=2.9 ps=20.58 w=10 l=0.35
X205 a_16027_11759# ui_in[3].t1 VDPWR.t458 VDPWR.t457 sky130_fd_pr__pfet_01v8_hvt ad=0.0609 pd=0.71 as=0.2279 ps=1.74 w=0.42 l=0.15
X206 VDPWR.t115 a_22541_5058# a_22457_5156# VDPWR.t114 sky130_fd_pr__pfet_01v8_hvt ad=0.1113 pd=1.37 as=0.0882 ps=0.84 w=0.42 l=0.15
X207 ringtest_0.x4.clknet_1_1__leaf_clk.t28 a_25364_5878# VSS.t650 VSS.t649 sky130_fd_pr__nfet_01v8 ad=0.0588 pd=0.7 as=0.0588 ps=0.7 w=0.42 l=0.15
X208 ringtest_0.x1.sky130_fd_sc_hd__inv_2_6.A ringtest_0.x1.sky130_fd_sc_hd__inv_2_5.A VSS.t599 VSS.t566 sky130_fd_pr__nfet_01v8 ad=0.08775 pd=0.92 as=0.169 ps=1.82 w=0.65 l=0.15
X209 ringtest_0.x4._19_ a_23529_6422# VSS.t392 VSS.t391 sky130_fd_pr__nfet_01v8 ad=0.169 pd=1.82 as=0.1013 ps=0.99 w=0.65 l=0.15
X210 a_26569_6422# ringtest_0.x4._23_ VSS.t1113 VSS.t1112 sky130_fd_pr__nfet_01v8 ad=0.1092 pd=1.36 as=0.1092 ps=1.36 w=0.42 l=0.15
X211 a_24895_4790# a_24729_4790# VDPWR.t560 VDPWR.t412 sky130_fd_pr__pfet_01v8_hvt ad=0.1664 pd=1.8 as=0.0864 ps=0.91 w=0.64 l=0.15
X212 VDPWR.t530 ringtest_0.x1.sky130_fd_sc_hd__inv_2_15.A ringtest_0.x1.sky130_fd_sc_hd__inv_2_16.A VDPWR.t529 sky130_fd_pr__pfet_01v8_hvt ad=0.26 pd=2.52 as=0.135 ps=1.27 w=1 l=0.15
X213 ringtest_0.ring_out.t3 ringtest_0.x3.x2.GN1 ua[1].t13 VSS.t838 sky130_fd_pr__nfet_01v8_lvt ad=2.32 pd=16.58 as=2.32 ps=16.58 w=8 l=0.35
X214 ringtest_0.drv_out.t15 a_19289_13081.t4 VSS.t1006 VSS.t1005 sky130_fd_pr__nfet_01v8 ad=0.495 pd=3.33 as=0.495 ps=3.33 w=3 l=0.15
X215 a_23899_5334# ringtest_0.x4.net6.t5 VDPWR.t728 VDPWR.t727 sky130_fd_pr__pfet_01v8_hvt ad=0.165 pd=1.33 as=0.165 ps=1.33 w=1 l=0.15
X216 VDPWR.t1111 VSS.t1145 VDPWR.t1110 VDPWR.t1109 sky130_fd_pr__pfet_01v8_hvt ad=0.2262 pd=2.26 as=0 ps=0 w=0.87 l=4.73